         349
 CSIRO Nanostructure Databank - Neutral Graphene Oxide Data Set
C          1.20496         1.90272         0.16684
C          1.10554         3.29279         0.32891
C          2.44914         1.29673         0.13735
C          2.24722         4.10672         0.39811
C          0.97084         6.38303         0.16222
C          1.07195         7.67933        -0.23340
C          1.99066         5.53365         0.88876
C          2.26931         8.51475        -0.12555
C          1.08222        10.73021        -0.28967
C          1.17895        12.10859        -0.28999
C          2.24097         9.91489        -0.10106
C          2.42859        12.81820        -0.38170
C          1.64490        14.99286         0.65061
C          1.93549        16.32552         0.96238
C          2.41105        14.29730        -0.30850
C          3.00822        17.01244         0.35718
C          3.48434        18.30795         0.83590
C          3.63389         2.07546         0.20719
C          3.53058         3.50339         0.26962
C          4.90263         1.41211         0.19302
C          4.83313         4.22084         0.16687
C          3.78577         6.54027        -0.42608
C          3.51505         7.79168         0.08180
C          4.96810         5.72954        -0.02385
C          4.61691         8.49622         0.77807
C          3.45246        10.73058         0.34036
C          3.62493        12.07233        -0.37876
C          4.70552         9.92691         0.40036
C          4.96856        12.59321        -0.58621
C          3.36257        15.05658        -1.00948
C          3.71986        16.36979        -0.68598
C          5.18535        13.92693        -1.14796
C          4.95619        16.99241        -1.21730
C          4.45774        18.98987         0.19643
C          4.97788        18.51098        -1.13654
C          6.12241         2.06920         0.40641
C          6.07121         3.54358         0.76920
C          7.34746         1.38594         0.38593
C          7.34791         4.29388         0.38350
C          6.09314         6.37398         0.67351
C          5.87853         7.76502         1.12573
C          7.37285         5.74803         0.72714
C          7.14647         8.50574         0.95418
C          5.92750        10.46697         0.09162
C          6.11813        11.86330        -0.26143
C          7.07433         9.58180         0.13517
C          7.36992        12.66820         0.17246
C          6.26654        14.72902        -0.87995
C          6.28696        16.18690        -1.19389
C          7.56299        14.01370        -0.55142
C          7.48620        16.97673        -0.81338
C          6.35519        19.07959        -1.56631
C          7.52193        18.36129        -0.94612
C          8.61279         2.05233         0.32455
C          8.62870         3.54602         0.31147
C          9.80051         1.41018         0.06790
C          9.89170         4.22232         0.77701
C          8.58110         6.42640         0.97237
C          8.39307         7.85796         1.47741
C          9.89541         5.69340         1.10631
C          9.61119         8.74462         1.44060
C          8.98611        10.68067         0.09953
C          8.74172        12.00763         0.29141
C          9.95130         9.93861         0.88107
C          9.91619        12.78880         0.67073
C          8.57237        14.85423         0.21447
C          8.57124        16.33836        -0.02982
C          9.86727        14.20375         0.53919
C          9.84348        17.06965         0.16517
C          8.66621        19.10934        -0.55841
C          9.83750        18.50431        -0.07622
C         10.99616         2.22382        -0.37056
C         11.20310         3.47067         0.51157
C         12.29319         1.46410        -0.39741
C         12.31903         4.35181        -0.02562
C         11.25876         6.36097         1.01644
C         11.51798         7.64188         1.47206
C         12.37416         5.66094         0.38396
C         12.56676         8.54155         1.00586
C         11.20866        10.67702         1.32900
C         11.14517        12.13106         0.89377
C         12.45163         9.91194         0.86782
C         12.35354        12.86328         0.79521
C         11.04219        14.96499         0.66871
C         10.99684        16.41127         0.54173
C         12.30380        14.28634         0.71920
C         12.23792        17.18588         0.92924
C         11.03363        19.24647         0.10512
C         12.24603        18.62452         0.44890
C         13.48758         2.15053        -0.61966
C         13.43262         3.66545        -0.82209
C         14.69999         1.47810        -0.82160
C         14.79203         4.26820        -0.55305
C         13.69581         6.36031         0.47034
C         13.88274         7.87042         0.66454
C         14.88175         5.65147        -0.03268
C         14.57240         8.55039        -0.53114
C         13.61012        10.68421         0.39681
C         13.59099        12.15368         0.55444
C         14.68867        10.03238        -0.17286
C         14.70930        12.90041         0.19066
C         13.51756        15.03692         0.53385
C         13.51088        16.45816         0.56993
C         14.71078        14.33566         0.20852
C         14.69654        17.18275         0.39922
C         13.46221        19.32031         0.42969
C         14.71633        18.63634         0.46493
C         15.93296         2.19600        -1.29711
C         15.94875         3.60447        -0.74929
C         17.19626         1.44008        -0.99881
C         17.23383         4.27360        -0.30017
C         16.05288         6.43761        -0.47439
C         15.90545         7.85052        -0.86781
C         17.23115         5.75358        -0.65181
C         17.19280         8.61076        -1.20756
C         16.03057        10.72227        -0.20367
C         15.83710        12.20543        -0.46926
C         17.11409        10.10371        -1.08520
C         16.99222        13.02814        -0.92623
C         15.89827        15.08497        -0.07416
C         15.91313        16.49345         0.10465
C         17.08624        14.44479        -0.54497
C         17.14440        17.20602         0.02995
C         15.94173        19.31070         0.44810
C         17.18399        18.61469         0.29947
C         18.42861         2.08598        -0.80536
C         18.47322         3.52941        -0.71346
C         19.66902         1.38658        -0.80240
C         19.68123         4.20494        -0.75662
C         18.44776         6.46150        -0.91316
C         18.47600         7.85214        -1.05820
C         19.70489         5.67031        -0.92212
C         19.75800         8.52183        -0.89443
C         18.09910        10.90398        -1.58827
C         18.22025        12.33279        -1.33928
C         20.04561         9.77834        -1.37731
C         19.34976        13.06108        -1.56291
C         18.29325        15.13126        -0.63620
C         18.35365        16.50597        -0.23830
C         19.51976        14.46456        -1.14911
C         19.60335        17.14218        -0.04914
C         18.43941        19.25082         0.38563
C         19.65093        18.52190         0.28212
C         20.92067         2.05619        -0.71534
C         20.93251         3.51050        -0.65974
C         22.12392         1.32981        -0.64552
C         22.10328         4.20731        -0.25514
C         20.99120         6.37115        -0.55700
C         20.85097         7.79923        -0.17953
C         22.12041         5.60092        -0.02978
C         22.05468         8.52748         0.30748
C         21.14285        10.58220        -0.88623
C         21.25631        11.92951        -1.16395
C         22.07116        10.00509         0.11962
C         22.23556        12.80822        -0.56262
C         20.89216        15.00806        -0.73035
C         20.82608        16.31025         0.02997
C         22.16059        14.20663        -0.55637
C         22.12857        17.01097         0.32786
C         20.93101        19.17561         0.42441
C         22.13027        18.48967         0.38814
C         23.42395         1.98855        -0.61868
C         23.39220         3.48418        -0.28918
C         24.70240         1.27071        -0.46330
C         24.60336         4.09317         0.34580
C         23.24981         6.32538         0.55463
C         23.35312         7.81978         0.48526
C         24.60001         5.56623         0.65743
C         24.51752         8.49020         0.73127
C         23.33526        10.74816         0.40799
C         23.44169        12.12621        -0.11788
C         24.57016        10.01546         0.95358
C         24.64650        12.78292        -0.10174
C         23.38059        14.93593        -0.24075
C         23.37846        16.29328         0.03202
C         24.66370        14.21279        -0.22684
C         24.66249        16.98785         0.42046
C         23.39913        19.16604         0.32850
C         24.60612        18.49649         0.27285
C         25.90533         1.96086        -0.33161
C         25.89161         3.37665         0.14982
C         27.17692         1.34825        -0.39907
C         27.11558         4.23141        -0.12663
C         25.81672         6.33063         0.59551
C         25.78985         7.74469         1.15484
C         27.07942         5.56102         0.60487
C         27.07918         8.51182         0.88835
C         25.87442        10.61567         0.46489
C         25.90938        11.96754        -0.20549
C         27.08538         9.90453         0.61847
C         27.15196        12.76510         0.08133
C         25.87673        14.89016        -0.16712
C         25.85212        16.39195        -0.32931
C         27.12632        14.18799        -0.00501
C         27.13016        17.07325         0.08194
C         25.85603        19.18687         0.22239
C         27.07698        18.51924         0.19925
C         28.38841         2.06675        -0.16393
C         28.39740         3.46592         0.06606
C         29.64158         1.37066        -0.18547
C         29.61457         4.17661         0.23631
C         28.37260         6.27667         0.84830
C         28.34525         7.77314         1.03560
C         29.63390         5.59653         0.44837
C         29.65214         8.51417         0.76435
C         28.35678        10.62257         0.41540
C         28.35633        12.06587         0.23977
C         29.57680         9.95314         0.43509
C         29.59198        12.79714         0.22731
C         28.33539        14.92515         0.13356
C         28.30741        16.37128         0.20923
C         29.58242        14.22639         0.20957
C         29.55946        17.10080         0.64987
C         28.32681        19.23633         0.21318
C         29.52785        18.57464         0.29623
C         30.82856         2.04960        -0.06065
C         30.85003         3.46417         0.12040
C         32.06826         4.18941         0.15156
C         30.84685         6.30052         0.35768
C         30.85693         7.75789         0.35558
C         32.06319         5.56613         0.21763
C         31.96261         8.48041        -0.05489
C         30.81805        10.64107         0.17765
C         30.82994        12.09331         0.17888
C         31.96967         9.89428        -0.06374
C         32.02999        12.82556         0.14882
C         30.82369        14.94616         0.20245
C         30.83086        16.40064         0.22707
C         32.02427        14.21729         0.17017
C         31.96008        17.14420        -0.01424
C         30.77719        19.27244         0.15569
C         31.94732        18.57754         0.01493
O          4.91377         8.11031         2.17281
O          4.14177        14.39753        -1.97138
O         20.46248        12.47373        -2.17652
O          5.23435         4.77424        -1.13071
O         14.58996         5.65212         1.44149
O         21.36183        16.30227         1.39059
O          8.13925         9.92321        -0.69491
O          9.81020         4.65581         2.17668
O         16.31121         8.07977        -2.26030
O         10.56645         8.20580         2.34129
O          5.57809        16.54058        -2.44116
O          2.47618         5.86722         1.95632
O         15.89837        12.65220        -1.86220
O         20.36827        15.23108        -2.07635
O         20.65683         6.10966        -1.95610
O          7.97615         4.04241        -0.90943
O         22.20754        10.73681         1.37859
O         23.73796         5.82671         1.84345
O         25.24945         3.40185         1.46658
O         27.69561         5.53778         1.93555
O         29.20337         8.22335         2.13747
O         23.62468         3.05300        -1.66078
O         21.00765         8.06339         1.24798
O         19.16277        10.33554        -2.31227
O          8.03259        15.72871         1.23365
O         16.51993        10.61715         1.17700
H         16.09516         9.83137         1.59606
O         24.56782        10.20665         2.38890
H         23.62887        10.16133         2.68307
O          3.06762         6.00864        -1.44866
H          3.59364         5.23604        -1.78162
O         29.55858        17.04302         2.11930
H         28.70915        17.42609         2.42624
O          3.13996        11.09482         1.73718
H          3.95586        11.46143         2.13852
O         11.24948        10.74303         2.77684
H         11.18577         9.82030         3.11598
O          4.02843        18.99184        -2.13793
H          4.12108        18.41485        -2.92663
O         27.03159         4.58138        -1.54516
H         27.06597         3.75052        -2.06586
O          8.19563        13.75408        -1.83288
H          7.55492        13.29198        -2.41340
O         25.98779        11.65102        -1.66463
H         26.11326        12.50148        -2.13839
O         14.77442         8.10781         1.78430
H         14.93979         7.22682         2.20746
O         13.71591         8.41247        -1.67888
H         14.27677         8.54748        -2.47605
O         10.70535         2.72285        -1.70488
H         10.60542         1.95944        -2.30963
O         12.21750        17.25581         2.39749
H         11.34278        17.61060         2.66347
O         25.63440        16.67828        -1.74319
H         26.43859        16.41016        -2.23421
O         17.25052         4.19040         1.16258
H         16.39055         4.53013         1.49798
O         25.71867         7.61441         2.60360
H         25.01263         6.95194         2.79748
O          8.12220         7.68156         2.90402
H          8.93218         7.30151         3.31046
O          6.00174         3.63241         2.21025
H          5.20663         3.14838         2.51638
O         13.15591         3.89623        -2.23122
H         13.84767         3.41008        -2.73694
O          6.41330        20.47098        -1.27349
H          5.60385        20.87675        -1.64838
O         11.69993         2.97715         1.77641
H         11.37364         3.59697         2.47192
O         24.85887        16.71165         1.83463
H         24.02438        16.92166         2.30522
O          7.02598        13.01623         1.54586
H          7.15505        12.22683         2.11202
O         15.79822         2.33256        -2.77736
H         16.63705         2.71509        -3.11433
H          0.29111         1.29543         0.11094
H          0.11180         3.74926         0.44068
H          2.53371         0.20255         0.07532
H          0.01207         5.87382        -0.03284
H          0.17266         8.14363        -0.67155
H          0.09904        10.26276        -0.44959
H          0.25586        12.70147        -0.37108
H          0.87191        14.45998         1.22222
H          1.36375        16.82596         1.75687
H          3.05177        18.70052         1.76850
H          4.91194         0.32982        -0.00651
H          4.81520        19.95740         0.57926
H          7.33569         0.28891         0.28777
H          6.41845        18.93426        -2.68707
H          9.83204         0.31168        -0.01072
H          8.64153        20.19866        -0.70229
H         12.29893         0.36672        -0.29746
H         11.03456        20.31742        -0.15170
H         14.73657         0.38414        -0.70115
H         13.45740        20.40817         0.25633
H         17.18225         0.34605        -1.12032
H         15.95557        20.40707         0.54370
H         19.66119         0.28920        -0.88053
H         18.48334        20.32885         0.60177
H         22.08729         0.23517        -0.54388
H         20.94498        20.27290         0.50924
H         24.71382         0.18244        -0.62559
H         23.39350        20.26690         0.29221
H         27.24128         0.27356        -0.62506
H         25.85006        20.28770         0.25203
H         29.63859         0.28169        -0.33745
H         28.30823        20.33079         0.09371
H         31.78454         1.50914        -0.11945
H         33.02035         3.64363         0.08464
H         33.02148         6.10199         0.21092
H         32.88096         7.96193        -0.36161
H         32.91158        10.39968        -0.31472
H         32.99631        12.30412         0.13473
H         32.98759        14.74457         0.18103
H         32.90882        16.65133        -0.27006
H         30.76546        20.37034         0.08695
H         32.89370        19.11450        -0.13911
