         667
 CSIRO Nanostructure Databank - Neutral Graphene Oxide Data Set
C          5.92046        31.66087        -0.78028
C          5.92433        33.02368        -0.91765
C          8.43158        27.46743         0.10063
C          8.40178        28.81967        -0.27692
C          7.17202        29.56354        -0.33955
C          8.36063        31.51156        -1.27888
C          7.12975        30.87385        -0.78256
C          8.36699        33.08076        -1.47673
C          7.12917        33.79767        -1.09695
C          8.37194        35.93599        -0.93326
C          7.16884        35.15616        -0.83836
C          8.40397        37.28223        -0.64519
C         10.87620        23.39503         1.40600
C         10.88600        24.73336         1.06881
C          9.64782        25.41245         0.75180
C         10.93525        27.34948        -0.02944
C          9.63231        26.71428         0.28167
C         10.90438        28.78266        -0.45661
C          9.62879        29.53106        -0.54511
C         10.89894        31.56202        -1.25756
C          9.63455        30.84447        -0.99533
C         10.89452        33.08918        -1.50698
C          9.62883        33.78691        -1.39079
C         10.89303        35.95824        -1.05700
C          9.61557        35.28835        -1.50361
C         10.88685        37.33006        -0.82554
C          9.63116        38.04726        -0.68756
C         10.85468        40.18127        -0.49067
C          9.63360        39.42269        -0.50308
C         10.85515        41.59589        -0.27714
C         13.27351        19.08376         1.17422
C         13.26747        20.52368         1.36582
C         12.10205        21.21077         1.55426
C         13.38438        23.37403         1.63734
C         12.08385        22.66539         1.93299
C         13.35056        24.87934         1.72053
C         12.12993        25.48214         1.06413
C         13.40700        27.52073         0.53253
C         12.18361        26.77366         0.55366
C         13.44792        28.81900        -0.24680
C         12.13654        29.57980        -0.22130
C         13.41979        31.72746        -0.81665
C         12.13648        31.01381        -0.62611
C         13.39459        33.11664        -1.07932
C         12.14143        33.83607        -1.21374
C         13.37865        35.90705        -0.57567
C         12.11378        35.20848        -1.02012
C         13.35676        37.38987        -0.76465
C         12.14038        38.07160        -0.71754
C         13.36091        40.27102        -0.42139
C         12.08066        39.49591        -0.61011
C         13.24186        41.68559        -0.98772
C         12.03121        42.36377        -0.37539
C         13.32426        44.44526        -0.03786
C         12.09588        43.71472        -0.03055
C         13.36297        45.77503         0.38221
C         15.67790        14.77798         0.70047
C         15.64234        16.19464         0.95558
C         14.48044        16.92954         0.92699
C         15.73134        19.08769         1.14229
C         14.43935        18.36277         1.11043
C         15.72917        20.53687         1.40790
C         14.55296        21.22565         1.45651
C         15.85451        23.38389         1.49480
C         14.56466        22.68470         1.56477
C         15.83094        24.82835         1.38313
C         14.64849        25.52775         1.30707
C         15.86967        27.63079         0.79974
C         14.63534        26.93583         0.93581
C         15.86584        29.09114         0.58030
C         14.57357        29.74135         0.15857
C         15.85498        31.77788        -0.52392
C         14.62294        31.09050        -0.44977
C         15.86173        33.13064        -0.97558
C         14.62061        33.82805        -1.12014
C         15.80644        35.96737        -1.32993
C         14.63157        35.26068        -1.10556
C         15.87152        37.39247        -1.21864
C         14.68051        38.08957        -0.57741
C         15.77811        40.30099        -1.33114
C         14.55232        39.53425        -0.99663
C         15.75985        41.77205        -1.09646
C         14.55029        42.42654        -0.81341
C         15.79567        44.48815        -0.38211
C         14.56273        43.78390        -0.42442
C         15.82227        45.83731         0.13434
C         14.59249        46.48594         0.50468
C         15.85195        48.48170         1.19341
C         14.62518        47.80312         0.99396
C         15.89521        49.81465         1.65815
C         17.99672        10.47411         0.04436
C         18.04171        11.98467         0.13546
C         16.86722        12.68757         0.27851
C         18.03899        14.89238        -0.15626
C         16.83406        14.11714         0.34113
C         18.08550        16.27526         0.50501
C         16.96617        16.78708         1.40538
C         18.30000        18.99438         1.68250
C         16.99523        18.30990         1.28644
C         18.27319        20.46800         1.41833
C         17.01734        21.21027         1.81221
C         18.34162        23.36631         1.33626
C         17.05310        22.68549         1.48898
C         18.35654        24.75226         1.24512
C         17.12985        25.57121         1.55116
C         18.31743        27.64204         0.74898
C         17.12761        26.96580         0.95311
C         18.39449        29.15174         0.72824
C         17.10496        29.82589         0.34390
C         18.32169        31.87190        -0.35556
C         17.10052        31.13942        -0.15748
C         18.29277        33.19194        -0.83949
C         17.07664        33.83245        -1.14380
C         18.32055        35.98368        -1.70638
C         17.02850        35.19993        -1.78896
C         18.28735        37.42291        -1.81025
C         17.03855        38.09740        -1.50400
C         18.18829        40.32998        -1.91011
C         17.10421        39.57345        -1.16663
C         18.16994        41.82075        -1.73936
C         16.98004        42.49631        -1.13900
C         18.23247        44.70451        -1.06937
C         16.99211        43.86089        -0.82968
C         18.29244        45.88237        -0.11355
C         17.05097        46.48311         0.35502
C         18.32460        48.43977         1.17725
C         17.08684        47.78999         0.92488
C         18.35622        49.77903         1.58495
C         17.12118        50.49225         1.82754
C         18.37918        52.54504         2.41951
C         17.15848        51.84584         2.23596
C         18.40025        53.86005         2.88963
C         20.44563         6.18869         0.15886
C         20.39441         7.58263         0.48862
C         19.23384         8.31584         0.44366
C         20.46581        10.50304         0.47040
C         19.16479         9.79293         0.77546
C         20.52273        11.84606         0.14634
C         19.31123        12.67245         0.03606
C         20.63047        14.73255        -0.18668
C         19.35668        14.07871        -0.07287
C         20.83175        16.11094        -0.39687
C         19.01484        17.19948         0.10180
C         20.67095        18.97254         0.74022
C         19.38367        18.41353         0.77926
C         20.81128        20.34522         1.33272
C         19.56247        21.16741         1.73883
C         20.81886        23.28808         1.09303
C         19.59803        22.62868         1.30011
C         20.86832        24.72741         0.94930
C         19.63130        25.47377         1.19272
C         20.84844        27.57642         0.36406
C         19.62790        26.97944         0.94196
C         20.83253        28.95081        -0.07469
C         19.50950        29.68034        -0.17110
C         20.81374        31.73129        -0.75269
C         19.63330        31.20045         0.01759
C         20.81620        33.17467        -1.01665
C         19.54762        33.94921        -1.05577
C         20.78555        35.96535        -2.00770
C         19.52784        35.31442        -1.65336
C         20.74458        37.42975        -2.19909
C         19.49778        38.11930        -1.99731
C         20.69741        40.33369        -1.71083
C         19.49218        39.61994        -2.28886
C         20.67869        41.68196        -1.43961
C         19.49982        42.56720        -1.83408
C         20.70642        44.51554        -0.85416
C         19.51361        43.89136        -1.09168
C         20.70503        46.00640        -0.58730
C         19.48833        46.45953         0.17052
C         20.83773        48.48670         0.87885
C         19.60191        47.63866         1.10565
C         20.83054        49.85577         1.29542
C         19.61036        50.48826         1.69811
C         20.83713        52.57270         2.03684
C         19.62442        51.84418         2.09231
C         20.77549        54.02480         2.28126
C         19.70438        54.51768         3.22836
C         20.84345        56.77596         3.20479
C         19.68003        56.01674         3.32346
C         20.87237        58.14741         3.62390
C         22.84041         3.39131        -0.30951
C         21.65969         4.08697        -0.23227
C         22.91524         6.12927         0.39186
C         21.64692         5.47828         0.11983
C         22.95962         7.50972         0.65427
C         21.68069         8.24596         0.82120
C         23.01005        10.33960         0.30529
C         21.70329         9.74709         0.76910
C         22.99328        11.82994         0.42069
C         21.82921        12.50328         0.14983
C         23.19145        14.68228        -0.03957
C         21.86725        13.94307        -0.14841
C         23.17114        16.13419         0.21248
C         21.96078        16.86122         0.05103
C         23.15183        18.96582         0.49608
C         21.89055        18.27989         0.37149
C         23.23667        20.35417         0.54556
C         22.06651        21.10276         1.01614
C         23.27956        23.21919         0.69068
C         22.07888        22.57286         0.95157
C         23.37418        24.71715         0.87461
C         22.04876        25.42272         0.68702
C         23.23667        27.39707        -0.27947
C         22.02443        26.81409         0.33713
C         23.21875        28.84086        -0.72163
C         21.97516        29.59868        -0.52096
C         23.24401        31.69657        -1.20507
C         21.97709        31.00880        -0.88343
C         23.25067        33.04515        -1.46235
C         21.93073        33.66112        -1.88074
C         23.20728        35.56198        -2.59102
C         21.93182        35.15184        -2.06858
C         23.16096        37.74085        -2.84976
C         21.90146        38.25480        -2.39338
C         23.16088        40.25563        -1.70005
C         21.94047        39.61315        -1.86885
C         23.23478        41.57316        -1.09317
C         21.89523        42.34046        -0.94748
C         23.20900        44.45037        -0.81122
C         21.97871        43.81120        -0.90297
C         23.22161        45.97164        -0.74686
C         22.01324        46.42430         0.09617
C         23.26539        48.58301         0.54356
C         22.01899        47.88924         0.45731
C         23.27761        49.94335         0.95344
C         22.04874        50.59405         1.28255
C         23.28371        52.73704         1.60231
C         22.04563        51.97967         1.62798
C         23.29928        54.12032         1.89089
C         22.04270        54.82620         2.16279
C         23.29108        56.86599         2.72943
C         22.08390        56.16534         2.75845
C         23.25826        58.31091         3.00269
C         22.05175        58.90224         3.61115
C         23.37853        60.83143         4.37541
C         22.13484        60.20945         4.14184
C         24.07859         4.02460        -0.00853
C         25.43907         5.97043         0.78319
C         24.12668         5.35969         0.34224
C         25.45307         7.48332         0.78087
C         24.21232         8.19971         0.76275
C         25.46893        10.29369         0.94064
C         24.25070         9.62468         0.79020
C         25.51629        11.74848         1.15214
C         24.21995        12.54068         0.82685
C         25.54469        14.60482         0.71824
C         24.34918        13.94457         0.48845
C         25.57864        16.02865         0.57755
C         24.38786        16.76255         0.51033
C         25.70841        18.89800         0.43423
C         24.41891        18.22078         0.83800
C         25.70500        20.33830         0.31268
C         24.48771        21.05975         0.43487
C         25.72952        23.16649         0.17270
C         24.50120        22.48278         0.45725
C         25.74293        24.60586         0.02077
C         24.56125        25.35228         0.18597
C         25.73282        27.40789        -0.50522
C         24.54054        26.72053        -0.13212
C         25.71143        28.85354        -0.79166
C         24.49860        29.56911        -0.87638
C         25.72646        31.60806        -1.47968
C         24.51151        30.95787        -1.14954
C         25.68439        33.00982        -2.07270
C         24.55162        33.83287        -1.43309
C         25.67542        35.92358        -2.60944
C         24.43556        35.13793        -2.17581
C         25.59971        37.40191        -2.07895
C         24.40086        38.24734        -2.52894
C         25.70803        40.28522        -1.80675
C         24.41716        39.72857        -2.32749
C         25.70655        41.66826        -1.45840
C         24.49179        42.34487        -1.17080
C         25.70734        44.46633        -0.85597
C         24.46499        43.74121        -0.92578
C         25.68629        45.85803        -0.46352
C         24.51669        46.54681        -0.22529
C         25.71014        48.61021         0.46667
C         24.50406        47.91233         0.26779
C         25.73561        49.98025         0.81248
C         24.51243        50.66243         1.04867
C         25.74979        52.78250         1.39174
C         24.51234        52.06010         1.34769
C         25.75059        54.16441         1.73308
C         24.52397        54.84054         1.99921
C         25.77934        56.91636         2.55087
C         24.51879        56.22615         2.36941
C         25.82492        58.20734         3.11344
C         24.64146        59.03627         3.24199
C         24.58713        60.24071         4.05723
C         26.65992         8.16242         0.81640
C         27.93336        10.30804         0.94363
C         26.71585         9.59007         0.91590
C         28.03998        11.72920         1.07409
C         26.79560        12.46514         1.18143
C         27.84046        14.65998         1.53739
C         26.73145        13.88642         1.15985
C         28.09753        15.98378         0.98958
C         26.85787        16.71821         0.45781
C         28.24276        18.81019         0.19865
C         26.87622        18.18584         0.37868
C         28.18921        20.32422         0.24949
C         26.93069        21.02455         0.13079
C         28.18440        23.05332        -0.53731
C         26.91356        22.42875        -0.03071
C         28.15930        24.55384        -0.50352
C         26.96006        25.27663        -0.36216
C         28.17168        27.41794        -1.06648
C         26.93479        26.69278        -0.57761
C         28.16882        28.83867        -0.51473
C         26.92158        29.56290        -0.93033
C         28.23010        31.59631        -1.54692
C         26.95200        30.91511        -1.34701
C         28.24052        32.93915        -2.27931
C         26.99032        33.75883        -2.06293
C         28.22113        35.94144        -2.78368
C         27.00178        35.27456        -2.07742
C         28.10693        37.48601        -2.59969
C         26.90072        38.15456        -2.28907
C         28.09206        40.41930        -2.47781
C         26.89098        39.57105        -2.09634
C         28.13055        41.76769        -1.80724
C         26.95911        42.39900        -1.42010
C         28.19171        44.52418        -1.10823
C         26.94886        43.80918        -1.08868
C         28.12404        46.02959        -1.03857
C         27.00684        46.47527        -0.09779
C         28.25528        48.54333         0.61609
C         26.98752        48.01387        -0.06008
C         28.22032        50.05254         0.63952
C         26.99790        50.70742         0.85053
C         28.22125        52.84241         1.17117
C         26.98064        52.11146         1.12427
C         28.20339        54.21534         1.52768
C         26.99785        54.88085         1.83383
C         26.98595        56.22593         2.26625
C         29.33636        12.33235         0.96658
C         30.66333        14.54760         1.04033
C         29.67574        13.64315         1.42353
C         30.65402        15.98444         1.42419
C         29.31773        16.75260         1.37604
C         30.59093        18.94906         1.06108
C         29.23903        18.27992         1.25199
C         30.58922        20.30128         0.80054
C         29.37379        21.02310         0.43687
C         30.60750        23.13290         0.12596
C         29.42333        22.44160         0.10834
C         30.71838        24.49949        -0.43046
C         29.42634        25.24418        -0.75466
C         30.63275        27.40477        -0.51983
C         29.45874        26.70732        -0.72800
C         30.62173        28.86925        -0.66664
C         29.44713        29.56903        -0.81121
C         30.66714        31.73065        -1.10268
C         29.41586        30.97373        -1.18627
C         30.67144        33.09283        -1.35277
C         29.53908        33.73774        -2.06986
C         30.63541        35.98875        -1.56124
C         29.55619        35.23281        -2.27863
C         30.93274        37.24849        -1.98476
C         29.25369        38.30689        -2.77681
C         30.66006        40.30596        -2.18728
C         29.39673        39.66036        -2.42865
C         30.65372        41.80020        -2.26929
C         29.37072        42.53968        -1.98394
C         30.61786        44.69824        -1.52772
C         29.39792        43.94050        -1.50548
C         30.64893        46.04297        -1.13350
C         29.43214        46.71776        -0.69045
C         30.78790        48.60757         0.26215
C         29.47133        47.93509        -0.06308
C         30.66978        50.09883         0.42497
C         29.46236        50.77380         0.64386
C         29.43201        52.17653         0.89417
C         31.86037        16.81756         1.27140
C         33.07532        18.95021         1.18004
C         31.84231        18.21258         1.21283
C         33.11786        20.35191         1.11585
C         31.82693        21.07147         1.03106
C         33.11508        23.24065         0.57365
C         31.82439        22.53543         0.71655
C         33.10849        24.58747         0.30276
C         31.90478        25.30877        -0.08331
C         33.04693        27.48667         0.31351
C         31.85129        26.69249        -0.17091
C         33.12782        28.88266        -0.28028
C         31.89722        29.60406        -0.68801
C         32.96577        31.83191        -0.16419
C         31.86052        31.07685        -0.63818
C         32.98881        33.22048        -0.31132
C         31.94444        33.87896        -1.17746
C         32.83440        36.09886        -0.23812
C         31.64516        35.29976        -0.71364
C         32.83226        37.58945        -0.40197
C         31.74674        38.22655        -1.26511
C         33.00764        40.35190        -1.29267
C         31.82691        39.65250        -1.69695
C         33.14591        41.79139        -1.63670
C         31.94421        42.55181        -2.10950
C         33.12703        44.70017        -1.43428
C         31.89729        44.09001        -2.09070
C         33.09241        46.11501        -1.18908
C         31.89587        46.77382        -1.06180
C         31.86065        48.25577        -0.78135
C         34.30453        21.10868         1.14992
C         35.57933        23.18136         0.80277
C         34.35874        22.52089         0.89087
C         35.67008        24.57679         0.21643
C         34.38394        25.34533         0.58485
C         35.63356        27.52233         0.24649
C         34.35062        26.72896        -0.05242
C         35.57695        29.00995         0.35559
C         34.24162        29.67729         0.33087
C         35.34944        31.94989         0.93882
C         34.11843        31.15218         0.49842
C         35.36847        33.35973         0.39824
C         34.15216        34.00017         0.04122
C         35.31155        36.18014         0.10664
C         34.13589        35.41745        -0.07355
C         35.28364        37.62809        -0.00767
C         34.10664        38.31952        -0.32647
C         35.33706        40.44469        -0.39774
C         34.11318        39.71200        -0.66830
C         35.35841        41.87474        -0.54993
C         34.29390        42.55066        -1.08825
C         34.25185        43.98369        -1.10799
C         36.87492        25.36752         0.66727
C         38.12655        27.61694         0.67191
C         36.81396        26.84472         0.96677
C         38.00190        29.12247         0.90831
C         36.75636        29.78872         0.80553
C         37.86203        31.94161         0.89716
C         36.67155        31.19566         0.81811
C         37.84001        33.38428         0.59418
C         36.55434        34.10082         0.47919
C         37.76045        36.27493         0.60485
C         36.54928        35.51206         0.34054
C         37.68673        37.70144         0.54216
C         36.51044        38.36342         0.18843
C         36.47305        39.78358         0.04459
C         39.14999        29.88552         1.14697
C         40.27125        32.10440         1.43767
C         39.10235        31.29632         1.12540
C         40.25683        33.46132         1.40461
C         39.11110        34.19625         0.84005
C         38.94659        35.64362         0.97358
O         22.70695        14.22568        -1.35101
O         27.79068        16.03939        -0.44615
O         22.53400        41.68399         0.18927
O         11.07073        27.72629        -1.46788
O         28.74666        14.11414         2.41978
O         29.87529        16.34708         2.64025
O         11.06339        32.08511        -2.59285
O         32.93119        42.07487        -3.08449
O         23.03085        27.75529        -1.70737
O         19.79635        26.45423         2.31443
O         31.65547        38.18140         0.20635
O         14.92142        29.74591         1.55745
O         17.73775        41.17500        -3.00225
O         32.90583        29.03588        -1.69327
O         30.26353        24.61996        -1.82622
O          8.22734        32.13106        -2.58748
O         31.78403        35.59380         0.68857
O         21.66632         9.07061         2.06084
O         24.59813        12.20950         2.20725
O         23.13270        36.54884        -3.58059
O         30.41512        37.64950        -3.22160
O         30.04787        34.34096        -3.34329
O         23.86663        59.11657         1.98621
O         19.81827        16.85257        -1.00558
O         21.00603        54.78738         1.07249
O         38.74240        33.71842        -0.51192
O         21.80319        20.50678         2.39603
O         11.94672        30.60258         0.79136
O         31.63593        22.06945         2.11126
O         29.89222        42.36370        -3.39413
O         16.58744        18.74422        -0.04168
O         33.76743        30.23154         1.60027
O         35.94630        28.33854        -0.92715
O         20.44697        33.97523         0.15277
O         14.89978        39.78639        -2.38169
O          9.55708        35.52617        -2.96161
H          8.83670        34.96867        -3.32718
O         12.96812        41.57422        -2.40466
H         13.06782        42.46008        -2.80919
O         19.93237        31.52465         1.39670
H         20.07975        32.49997         1.42581
O         17.15806        16.37837         2.77418
H         17.77733        17.02130         3.19792
O         32.58083        34.02536        -2.49338
H         31.84947        34.12604        -3.15474
O         27.33814        45.92495         1.21713
H         26.50141        45.76082         1.70134
O         31.22775        48.08474         1.55271
H         30.45277        48.16881         2.15775
O         27.82863        40.70722        -3.90957
H         28.54728        41.33074        -4.18887
O         25.32793        32.84875        -3.48202
H         26.15259        32.56234        -3.94659
O         19.80362        47.04084         2.45020
H         19.80458        47.77620         3.10042
O         25.72755        35.95547        -4.03518
H         24.83360        36.21452        -4.35866
O         20.57390        46.66474        -1.88824
H         19.72734        46.33137        -2.28927
O         27.18996        35.59324        -0.67003
H         26.42850        35.19257        -0.17516
O         19.62266        21.25146         3.22230
H         20.59383        21.21347         3.44092
O         28.14887        32.60480        -3.71012
H         28.48689        33.40305        -4.18981
O         19.68561        42.92483        -3.23754
H         19.43537        42.12229        -3.75737
O         21.63691        33.09615        -3.20504
H         22.41884        33.25053        -3.77838
O         18.68545        29.49196         2.10762
H         17.90235        29.25987         2.64921
O         25.33641        37.32184        -0.64436
H         25.60025        38.17464        -0.23797
O         28.77704        18.44584        -1.09695
H         28.14660        18.73982        -1.78661
O         16.96784        21.13828         3.28821
H         17.83972        21.46026         3.62314
O         28.09659        27.50158        -2.51334
H         28.20103        26.59895        -2.88081
O         18.60758        18.67598         3.07424
H         19.02493        19.48091         3.47193
O         17.21021        25.81707         3.00792
H         18.12223        26.17000         3.17014
O         38.53733        27.39991        -0.67908
H         37.84766        27.79357        -1.26084
O         18.02931        10.09994        -1.34466
H         18.76479        10.58082        -1.77749
O         36.59731        27.04507         2.39604
H         35.79160        26.53041         2.64636
O         13.46313        35.72366         0.91130
H         12.57956        35.94461         1.27830
O         31.93882        44.51246        -3.48215
H         32.50314        43.85933        -3.95531
O         23.16885        46.48587        -2.09882
H         22.22421        46.50860        -2.39526
O         35.80560        24.39104        -1.21914
H         35.38698        25.16771        -1.67140
O         24.39265        40.27994        -3.71376
H         25.30550        40.20941        -4.07517
O         24.42755        18.27003         2.31670
H         25.32892        18.03668         2.62547
O         34.27937        26.51961        -1.47882
H         34.45082        27.38878        -1.91328
O         13.69192        28.47786        -1.63945
H         12.89569        27.98250        -1.95759
O         27.07093        48.54505        -1.40591
H         26.36569        48.13071        -1.94813
O         22.09816        45.69220         1.34510
H         21.34779        45.98703         1.91876
O         35.21051        32.17275         2.37806
H         34.74105        31.38354         2.73949
O         31.57818        48.96129        -1.99988
H         30.73926        48.61469        -2.36909
O         16.85601        34.96505        -3.23286
H         15.99302        34.51552        -3.35852
O         17.45757        39.65114         0.24521
H         16.79315        39.12250         0.74748
O         28.16180        35.65237        -4.18154
H         28.91522        36.10525        -4.61529
O         32.92603        27.68176         1.73175
H         33.10017        26.82421         2.18464
O         11.90644        22.73297         3.39760
H         12.16593        23.65260         3.65781
O         19.65082        39.74039        -3.73170
H         18.80696        39.47039        -4.15276
O         26.53034         5.44849         0.01602
H         26.38828         5.68940        -0.92206
O         13.20549        25.20190         3.16723
H         14.09871        25.13015         3.57079
O         23.68269        24.89715         2.30741
H         22.92557        24.54290         2.82133
O         22.99367        10.06830        -1.14861
H         23.69605        10.60693        -1.57110
O         13.58445        40.41920         1.00554
H         13.95483        39.56530         1.33927
O         20.13413        54.02437         4.56198
H         19.40169        54.19810         5.19038
O         28.35479        48.17593         2.02257
H         28.18300        47.19964         2.06840
O         28.10497        28.69493         0.93837
H         28.11434        29.59071         1.33572
O         34.40834        25.49978         2.04123
H         34.40110        24.59535         2.42727
O         18.93266         9.92577         2.20437
H         19.74205         9.58276         2.65150
O         24.92909        34.05815        -0.04276
H         24.20043        34.54701         0.39548
O         28.27282        22.68033        -1.96527
H         29.04992        23.17667        -2.32387
O         14.96735        38.07537         0.87534
H         14.69212        37.17577         1.19549
O         19.04602        29.44299        -1.52713
H         19.76790        29.67881        -2.14790
O         17.79565        15.09878        -1.57697
H         18.48402        15.72768        -1.89731
O         18.14041        45.27164        -2.42653
H         18.39079        44.54773        -3.05111
O         28.72802        18.72883         2.53238
H         29.28207        18.30659         3.22685
O         27.77095        46.39823        -2.40194
H         28.45502        46.02283        -2.99641
H          4.97179        31.14470        -0.57095
H          4.97807        33.57494        -0.81069
H          7.47610        26.96585         0.31830
H          6.24129        29.07194        -0.01798
H          6.24851        35.66276        -0.50700
H          7.47821        37.79928        -0.34693
H          9.91359        22.86011         1.43306
H          8.70091        24.88254         0.93455
H          8.67810        39.95347        -0.37328
H          9.91071        42.08874         0.00274
H         12.30413        18.56359         1.13498
H         11.14151        20.67292         1.54294
H         11.19060        44.22307         0.33757
H         12.42887        46.27641         0.67697
H         14.75126        14.19535         0.83516
H         13.53350        16.41895         0.68871
H         13.68179        48.31345         1.23852
H         14.95345        50.34417         1.86565
H         17.03138        10.09709         0.46174
H         15.92575        12.13689         0.43234
H         16.21005        52.36711         2.43510
H         17.45309        54.38976         3.07335
H         19.50617         5.67072        -0.08534
H         18.29018         7.80519         0.19817
H         18.76525        56.50336         3.69839
H         19.94639        58.60354         4.00530
H         22.83759         2.32766        -0.58577
H         20.70316         3.58830        -0.44502
H         23.38534        61.78300         4.92676
H         21.21843        60.69032         4.51197
H         25.01024         3.44232        -0.04306
H         25.62102         5.63663         1.84537
H         26.78711        58.59643         3.47907
H         25.52649        60.65436         4.45123
H         27.59782         7.58849         0.78233
H         28.86804         9.73089         0.86967
H         29.15368        54.76595         1.58789
H         27.94204        56.75682         2.38514
H         30.13985        11.70597         0.54951
H         31.40708        14.23958         0.29211
H         31.60887        50.67195         0.46986
H         30.37675        52.73899         0.91600
H         32.83254        16.30455         1.21761
H         34.01935        18.38819         1.24380
H         34.03729        46.64416        -0.99049
H         32.86031        48.60303        -0.42302
H         35.26055        20.57997         1.28413
H         36.50928        22.62879         1.00388
H         36.23872        42.43035        -0.19426
H         35.12650        44.52225        -0.71009
H         37.86258        24.92393         0.46127
H         38.93154        27.20765         1.33243
H         38.59881        38.28745         0.72916
H         37.38826        40.36078         0.24321
H         40.11762        29.38221         1.29117
H         41.16897        31.57882         1.79657
H         41.12393        34.03640         1.76239
H         39.79881        36.24946         1.31750
