         276
 CSIRO Nanostructure Databank - Neutral Graphene Oxide Data Set
C        -11.04980         0.62590         0.41216
C         -9.98189         1.54247         0.02951
C         -8.88496         0.97177        -0.79629
C         -7.54975         1.66530        -0.70082
C         -6.31615         0.79776        -0.60741
C         -5.11330         1.39414         0.11082
C         -3.81319         0.67219        -0.16942
C         -2.58727         1.28401        -0.02335
C         -1.46633         0.81574        -0.93835
C         -0.07232         1.42266        -1.03593
C          1.23206         0.68456        -1.18759
C          2.54393         1.45614        -1.13629
C          3.79367         0.65872        -0.85803
C          5.06605         1.42915        -0.56676
C          6.34993         0.68069        -0.34069
C          7.57442         1.42494         0.19855
C          8.88026         0.60549         0.24743
C         10.18955         1.35456        -0.04007
C         11.35438         0.51086         0.45153
C         -9.94747         2.85658         0.37243
C         -8.86085         3.76908        -0.17760
C         -7.52072         3.03871        -0.10192
C         -6.32077         3.58507         0.21718
C         -5.07085         2.86846        -0.22343
C         -3.76520         3.56623        -0.41560
C         -2.49329         2.71968        -0.54506
C         -1.22447         3.54487        -0.20301
C         -0.03177         2.91523        -0.90089
C          1.24673         3.69101        -0.92795
C          2.57174         2.97537        -1.03908
C          3.74534         3.59720        -0.37988
C          4.90268         2.84406        -0.03176
C          6.31560         3.82703        -0.95303
C          7.89299         2.72897        -0.61405
C          8.89206         3.49813         0.25497
C         10.03349         2.78433         0.50101
C         -8.92149         5.17884         0.39289
C         -8.07227         6.16505         0.14248
C         -6.07038         4.87738         0.90796
C         -5.01092         5.74098         0.19349
C         -3.69043         4.90509         0.36040
C         -2.41825         5.71859         0.13783
C         -1.32831         5.04222        -0.67015
C          0.00134         5.77005        -0.44351
C          1.17263         5.08008        -0.40944
C          2.48514         5.82511        -0.29494
C          3.64597         4.96223         0.26199
C          4.92061         5.83772        -0.15506
C          6.35016         5.21897        -0.37911
C          7.49504         5.58150         0.54270
C          8.66286         4.87810         0.66964
C         -7.39287         7.28076        -0.07609
C         -6.33878         7.88810         0.87048
C         -4.97990         7.14489         0.79197
C         -3.68931         7.90386         0.74187
C         -2.42772         7.19524         0.32896
C         -1.29534         8.02027        -0.19192
C          0.00585         7.26034        -0.42234
C          1.22865         7.99010        -0.08956
C          2.32722         7.14769         0.50366
C          3.66595         7.88649         0.70249
C          4.97151         7.14399         0.63326
C          6.32917         7.87256         0.65724
C          7.41821         7.00234        -0.00748
C         -6.16893         9.37295         0.62344
C         -4.99018        10.03480         0.60044
C         -3.68987         9.38376         0.61749
C         -2.51896        10.08286         0.43407
C         -1.23989         9.44398         0.18701
C         -0.02050        10.09787         0.14869
C          1.22590         9.36589         0.09868
C          2.51441        10.03383         0.26686
C          3.68896         9.35427         0.47550
C          4.99072         9.97082         0.23244
C          6.16639         9.29949         0.17440
C        -11.09172        -0.67284         0.04935
C        -10.09293        -1.41337        -0.83659
C         -8.89418        -0.47721        -1.18012
C         -7.56900        -1.12741        -1.34474
C         -6.42789        -0.67525        -0.76209
C         -5.19670        -1.44631        -0.30706
C         -3.95426        -0.69288        -0.85552
C         -2.63795        -1.39685        -0.58449
C         -1.42580        -0.73891        -1.25620
C         -0.09224        -1.47819        -0.83490
C          1.23078        -0.78280        -0.85374
C          2.39937        -1.30167        -0.00429
C          3.74247        -0.80811        -0.56258
C          4.95708        -1.45525         0.00751
C          6.30484        -0.83919        -0.26800
C          7.59364        -1.59545        -0.07656
C          8.86426        -0.87883         0.25896
C         10.13720        -1.73119         0.31258
C         11.36466        -0.83435         0.38041
C         -9.86445        -2.79523        -0.20044
C         -8.84044        -3.74860        -0.33641
C         -7.57029        -3.35475        -0.96291
C         -6.36566        -3.74475        -0.45417
C         -5.12796        -2.96255        -0.48932
C         -3.92368        -3.57778        -0.23238
C         -2.66049        -2.80071        -0.07220
C         -1.36536        -3.51007         0.18321
C         -0.10354        -2.65628         0.15918
C          1.18818        -3.49223         0.10491
C          2.36547        -2.80727         0.15233
C          3.54460        -3.41974         0.87211
C          4.78259        -2.57300         0.75360
C          6.71745        -3.74567         0.78898
C          7.68521        -3.06716         0.13811
C          8.86084        -3.76550        -0.39765
C         10.08313        -2.89909        -0.70667
C         -8.84110        -5.01867         0.27575
C         -7.65184        -5.88343        -0.06815
C         -6.37087        -5.06654         0.28247
C         -5.12355        -5.83906        -0.10245
C         -3.83463        -5.06434        -0.23488
C         -2.55642        -5.77742         0.04569
C         -1.30947        -4.98426         0.30525
C         -0.04387        -5.69267        -0.13290
C          1.23868        -4.95626         0.22543
C          2.42209        -5.64146         0.37214
C          3.73945        -4.89676         0.45182
C          5.05812        -5.66343         0.39927
C          6.52892        -5.22655         0.74268
C          7.43136        -5.79223        -0.40619
C          8.79518        -5.11881        -0.49494
C         -7.58350        -7.31059         0.45585
C         -6.40331        -7.99534         0.50921
C         -5.11960        -7.28688         0.22601
C         -3.84914        -7.93442         0.68065
C         -2.58955        -7.07635         0.84411
C         -1.27991        -7.88245         0.70177
C         -0.01939        -7.15692         0.30964
C          1.21901        -7.88380        -0.17902
C          2.44362        -7.16949         0.49702
C          3.73465        -7.81934         0.01183
C          5.02652        -7.20672         0.57902
C          6.25891        -7.93813         0.02906
C          7.40556        -7.29926        -0.31134
C         -6.28875        -9.45576         0.45837
C         -5.10083       -10.10557         0.33584
C         -3.80846        -9.42885         0.63301
C         -2.47428       -10.06950         0.50002
C         -1.31534        -9.36533         0.55576
C          0.02135       -10.07694         0.71779
C          1.24746        -9.36240         0.16841
C          2.42971       -10.01214         0.07554
C          3.71561        -9.30808        -0.16030
C          4.98834       -10.04763        -0.01266
C          6.17155        -9.39726         0.02524
O          8.20298         2.56515        -1.85685
O         -4.20658         7.32060         1.99991
O          6.00772         1.23443        -1.65808
O         -0.81264         7.77426        -1.53445
O         -0.29956        -7.42374         1.70103
O          0.39924         3.56498        -2.12516
O         -6.67645         1.49289        -1.84936
O         -5.19467        -6.82755        -1.18300
O         -1.92846         6.28717         1.38489
O          0.45055         1.00100        -2.35367
O          4.96668        -7.42992         1.97010
O          4.48957        -5.11505        -0.79595
O          3.89346        -0.35699        -1.92295
O          0.82279        -1.65459        -1.94787
O          8.85366        -0.12498         1.53197
O         -4.00647        -8.69420         1.91841
O         -6.43538         5.09840         2.05550
O          5.81250        -3.02847         1.57902
O         -1.37103        -4.20615         1.51049
O          7.05326        -1.35517        -1.42060
O          2.77114         2.30271        -2.30825
O         -2.16665         1.98263        -1.86565
O         -4.66227         3.36393        -1.54193
O         -9.27268         0.55114        -2.15628
O          2.70847         6.05909        -1.65514
O          3.77077        -8.33835        -1.32517
O         -7.65606        -2.38324        -1.94200
O         -3.01142        -5.68219        -1.31194
O          6.91860         6.35363        -1.24427
O         -2.63092        -1.62667         0.86047
O          4.30958         7.31224         1.91015
O          2.33904        -0.83368         1.32085
O          6.11785         3.85328        -2.25920
H          6.37301         2.96218        -2.62738
O          6.76691         7.97320         2.03345
H          5.95639         8.11208         2.57740
O         -0.16517        -5.61544        -1.57248
H          0.47865        -6.25114        -1.97608
O         -7.70460        -6.01084        -1.51330
H         -6.86166        -6.44603        -1.80016
O          6.77729        -5.44273        -1.65657
H          7.44172        -5.47053        -2.37539
O         -6.82628         7.78930         2.21723
H         -6.74062         6.84562         2.49942
O          0.22893       -10.21049         2.13617
H          0.33873        -9.29823         2.49256
O         -0.06883        -1.98513         1.43874
H         -0.28988        -2.65134         2.12802
O          7.39157         1.80062         1.58612
H          7.71777         1.04334         2.13721
O         -4.20167        -0.47474        -2.24155
H         -3.37848        -0.15023        -2.67627
O         -5.21408        -1.29687         1.15170
H         -4.27630        -1.44819         1.45424
O          6.91299        -5.75571         2.00622
H          6.27991        -6.48138         2.28668
O        -10.76336        -1.69331        -2.08968
H        -10.64028        -0.90038        -2.66015
O          9.96542        -2.40221        -2.03556
H         10.63295        -1.69997        -2.17655
O         -3.63548         4.46308         1.73798
H         -3.54795         5.27972         2.29107
O         -2.65303        -6.57570         2.19638
H         -2.76119        -7.35204         2.79052
O         -1.57783        -0.92614        -2.66105
H         -0.73152        -0.63568        -3.08071
O         -1.73342         5.10441        -2.03464
H         -1.03814         4.66625        -2.58294
O          5.25473         3.09065         1.29328
H          6.05458         2.57900         1.59938
O          2.35801        -7.47933         1.89833
H          3.28799        -7.42507         2.27228
O         -6.34609        -4.87007         1.70980
H         -5.66390        -4.19993         1.92639
O          3.15742        -3.40469         2.26612
H          2.79801        -2.49545         2.42985
O         -5.30329         5.92896        -1.19311
H         -5.28329         5.04992        -1.65307
O         -5.38241         1.35786         1.53359
H         -5.40108         0.40147         1.79137
O          1.79240         6.83981         1.80824
H          2.54284         6.52690         2.36665
O         -0.98144         3.48876         1.20739
H         -1.77214         3.85090         1.68132
O         -9.10966         3.92714        -1.60205
H         -9.04335         3.05198        -2.04165
O          1.26899        -7.76859        -1.61177
H          2.17338        -8.06050        -1.90730
O          4.63369         6.29578        -1.50045
H          4.86818         5.59210        -2.15280
O         10.44284         1.37898        -1.46129
H          9.72481         1.89840        -1.91408
O         10.11117        -2.40732         1.59399
H          9.93315        -1.72459         2.27796
O          3.49145         4.87270         1.66709
H          4.06463         4.14493         2.00722
H         12.30199        -1.35988         0.62875
H         12.30352         1.03804         0.64095
H         10.84573         3.22620         1.10217
H          9.54080         5.42280         1.05711
H          8.37779         7.54401        -0.16875
H          7.08542         9.85403        -0.07024
H          4.98059        11.04152        -0.02648
H          2.54989        11.12193         0.09875
H          0.02125        11.17793         0.35593
H         -2.55681        11.18304         0.40142
H         -4.99352        11.13038         0.48762
H         -7.10008         9.95800         0.57258
H         -7.62029         7.84664        -0.99813
H         -9.84058         5.42902         0.95629
H        -10.76074         3.28518         0.97931
H        -11.86924         1.03981         1.01993
H        -11.96366        -1.26896         0.36204
H        -10.74447        -3.14396         0.36887
H         -9.66937        -5.35989         0.91457
H         -8.53111        -7.86772         0.53013
H         -7.22464       -10.02817         0.36786
H         -5.08915       -11.19306         0.16800
H         -2.43624       -11.16695         0.41331
H         -0.04524       -11.11076         0.29292
H          2.48735       -11.08507         0.31761
H          4.94754       -11.14642         0.01189
H          7.11198        -9.96924         0.04612
H          8.27661        -7.88360        -0.65169
H          9.65746        -5.70664        -0.84695
H         11.02030        -3.51956        -0.60427
