         236
 CSIRO Nanostructure Databank - Neutral Graphene Oxide Data Set
C        -10.31909         1.28585        -2.21618
C         -9.10213         2.09589        -1.85232
C         -7.95608         1.22795        -1.37583
C         -6.76503         1.93591        -0.87609
C         -5.54711         1.12233        -0.50834
C         -4.57834         1.64167         0.51403
C         -3.60643         0.69917         1.09936
C         -2.73774         1.25534         2.20110
C         -1.35007         0.62940         2.31176
C         -0.07803         1.46210         2.27454
C          1.25043         0.69829         2.16836
C          2.48015         1.42785         1.61898
C          3.52531         0.49268         0.98367
C          4.70893         1.24886         0.48240
C          6.01095         0.56767         0.32013
C          7.12826         1.28608        -0.38313
C          8.35347         0.49870        -0.75165
C          9.27707         1.06461        -1.75875
C         10.36413         0.20643        -2.20024
C         -9.38355         3.26359        -0.92744
C         -8.35636         3.90607        -0.24988
C         -7.00357         3.27682        -0.23701
C         -6.12973         3.68496         0.90575
C         -4.97766         2.84789         1.31419
C         -3.91208         3.49578         2.19816
C         -2.63827         2.74182         1.96118
C         -1.55673         3.33684         1.41251
C         -0.15914         2.90741         1.78938
C          0.94576         3.30854         0.85299
C          2.11389         2.60762         0.71626
C          3.12544         3.10908        -0.25869
C          4.45129         2.43148        -0.38629
C          5.58003         3.09510        -1.08824
C          6.82259         2.52973        -1.12855
C          7.91365         3.13297        -1.89890
C          9.08894         2.34567        -2.21205
C         -8.45810         5.18843         0.34678
C         -7.33855         5.85589         0.96323
C         -6.15717         5.10207         1.30430
C         -4.95620         5.72734         1.77127
C         -3.78415         4.98421         1.99019
C         -2.45617         5.61726         2.15410
C         -1.24562         4.77364         1.73506
C         -0.43836         5.44739         0.61291
C          0.83065         4.66511         0.32260
C          1.86446         5.25317        -0.36106
C          3.05210         4.51252        -0.73850
C          4.06475         5.08253        -1.47529
C          5.25923         4.28300        -1.97469
C          6.50216         5.12751        -2.23858
C          7.76430         4.42987        -2.34114
C         -7.37149         7.22487         1.23228
C         -6.24737         7.90556         1.97019
C         -4.93043         7.17927         1.82764
C         -3.72974         7.84429         1.76576
C         -2.44532         7.11433         1.88827
C         -1.25675         7.73560         1.25004
C         -0.23959         6.95079         0.78672
C          0.92591         7.60108         0.14694
C          1.92782         6.72659        -0.51984
C          2.73833         7.27390        -1.64589
C          3.90256         6.43190        -2.07527
C          5.11084         7.14618        -2.63562
C          6.41092         6.45016        -2.56572
C         -6.13404         9.37615         1.67124
C         -4.94690        10.00148         1.53646
C         -3.68235         9.28078         1.56500
C         -2.48758         9.91244         1.28994
C         -1.27496         9.18079         1.01525
C         -0.24292         9.79496         0.32459
C          0.84763         9.04133        -0.22884
C          1.81233         9.59697        -1.03208
C          2.75384         8.76790        -1.82329
C          3.99914         9.36337        -2.35528
C          5.07499         8.62612        -2.69920
C        -10.34215        -0.05199        -2.22259
C         -9.22997        -0.90864        -1.66823
C         -7.94446        -0.13794        -1.46918
C         -6.72580        -0.89706        -1.27015
C         -5.56171        -0.33706        -0.74024
C         -4.44190        -1.14448        -0.30857
C         -3.49153        -0.58766         0.64895
C         -2.50005        -1.47806         1.32124
C         -1.31858        -0.86462         2.07671
C         -0.00107        -1.58833         2.08972
C          1.29832        -0.81562         2.27424
C          2.65112        -1.56798         2.11950
C          3.66204        -0.84497         1.25524
C          4.86349        -1.61015         0.93861
C          6.00292        -0.94121         0.20231
C          7.39548        -1.52062         0.48848
C          8.40734        -0.92429        -0.45509
C          9.73997        -1.60298        -0.56864
C         10.57139        -1.02929        -1.69114
C         -9.05656        -2.22866        -2.37667
C         -7.87017        -2.93661        -2.32601
C         -6.64129        -2.23853        -1.86339
C         -5.37605        -3.02342        -1.62992
C         -4.36276        -2.50769        -0.68568
C         -3.33559        -3.37952        -0.21877
C         -2.39005        -2.88665         0.80951
C         -1.12858        -3.62715         0.98567
C          0.13456        -2.84881         1.23444
C          1.25581        -3.71099         1.78784
C          2.56065        -3.03284         1.76555
C          3.74965        -3.74542         1.50180
C          4.96164        -2.97699         1.16151
C          6.20235        -3.68371         0.83509
C          7.34355        -3.03025         0.42361
C          8.50560        -3.75256        -0.08367
C          9.59275        -3.09948        -0.61391
C         -7.79753        -4.32239        -2.64096
C         -6.67087        -5.13434        -2.32572
C         -5.37170        -4.48075        -1.97482
C         -4.20095        -5.31214        -1.57003
C         -3.21866        -4.73383        -0.60927
C         -2.20544        -5.56736        -0.06380
C         -1.10009        -4.98600         0.66931
C          0.02577        -5.83092         1.03587
C          1.18625        -5.20488         1.73200
C          2.52225        -5.94680         1.91328
C          3.72610        -5.15508         1.41964
C          4.98184        -5.91798         1.31671
C          6.25316        -5.15885         0.99453
C          7.37152        -5.89509         0.35757
C          8.44724        -5.19909        -0.12891
C         -6.78942        -6.50901        -2.20277
C         -5.76293        -7.30819        -1.43728
C         -4.33075        -6.82735        -1.72757
C         -3.34578        -7.60786        -0.89761
C         -2.23560        -6.99363        -0.27631
C         -1.17640        -7.81747         0.20938
C         -0.02098        -7.19754         0.81381
C          1.16828        -8.04901         1.06825
C          2.47495        -7.39480         1.41018
C          3.70672        -7.99879         0.85367
C          4.90476        -7.33903         0.89694
C          6.12683        -8.02015         0.48282
C          7.29677        -7.33129         0.27195
C         -5.82563        -8.80583        -1.65212
C         -4.74640        -9.57641        -1.40484
C         -3.49343        -9.00326        -0.90818
C         -2.44229        -9.80809        -0.42018
C         -1.27530        -9.23047         0.07826
C         -0.14352       -10.13489         0.51762
C          1.18136        -9.41246         0.45899
C          2.33291       -10.01388         0.11296
C          3.62671        -9.25029         0.00385
C          4.87079       -10.08731         0.16560
C          6.05867        -9.47043         0.32648
O          3.35707         2.11092        -1.33250
O          5.71706         1.28180         1.55924
O          3.27219        -1.57918         3.44133
H          2.59751        -1.86463         4.09382
O         -4.30022         3.36919         3.58350
H         -5.24229         3.07446         3.58995
O          1.72628        -8.17029         2.41967
O          2.00169         7.86203        -2.74781
O          4.14047         6.45491        -3.52204
O          2.24132         7.32494         0.79377
O         -6.62262         7.81172         3.39578
H         -6.53724         6.87041         3.65948
O         -3.40747         0.97303         3.44141
H         -2.80342         1.24867         4.16573
O          5.97082        -5.60543         2.36325
O         -5.54388        -2.23940        -2.85693
O          0.58004        -2.34171        -0.06868
H          0.50900        -3.06397        -0.72868
O          0.84119        -4.47545         2.97316
O         -6.40212         3.19460        -1.56667
O          2.80630        -6.04183         3.32792
H          2.27161        -5.34216         3.77545
O          5.77774        -1.19342        -1.21993
H          4.86988        -0.90228        -1.45102
O         -3.11973        -2.55693         2.08183
O         -6.24840         2.68165         2.02464
O         -0.88712        -1.66515         3.21938
O          3.65882        -8.74602        -1.38966
H          3.77510        -9.52206        -1.97792
O         -1.29143         5.32020        -0.56734
H         -0.79558         5.63450        -1.35282
O         10.44268        -1.28238         0.68880
H          9.79084        -1.41839         1.41906
O         -8.65110         2.71421        -3.10277
H         -7.77370         3.12822        -2.90887
O         -0.12390       -11.33692        -0.25149
H         -0.06125       -11.09620        -1.19815
O          3.15835         2.03345         2.74249
H          3.15922         1.37140         3.47058
O          8.29311         1.37432         0.50533
O         -9.64841        -1.27425        -0.29874
H        -10.52300        -1.71289        -0.36390
O         -4.02844        -7.17950        -3.09564
H         -4.09853        -6.34541        -3.62250
O          1.44423         0.02862         3.44622
O          7.82566        -1.14435         1.82936
H          7.88747        -0.15704         1.84588
O         -6.00966        -7.03970        -0.02162
H         -6.87230        -7.43732         0.21922
O          4.86155         3.74820        -3.27269
H          4.53857         4.51994        -3.79826
O         -2.24352         6.56079         3.24030
O         -4.32513         1.82327        -0.91822
O         -0.25098         4.16889         2.72891
O         -4.23589        -4.69141        -2.90328
O         -0.73198         1.13555         3.52624
H         11.41475        -1.63368        -2.05883
H         11.02795         0.59204        -2.98964
H          9.81888         2.78210        -2.91121
H          8.61017         4.94870        -2.81738
H          7.31946         7.01618        -2.82508
H          5.99726         9.13283        -3.02305
H          4.05991        10.46178        -2.39449
H          1.81684        10.68433        -1.20441
H         -0.31872        10.86533         0.08088
H         -2.48453        10.99704         1.10214
H         -4.91137        11.08624         1.35257
H         -7.06941         9.95445         1.62890
H         -8.28479         7.80061         1.01821
H         -9.39861         5.74895         0.23705
H        -10.37276         3.74377        -0.98563
H        -11.18880         1.84980        -2.58821
H        -11.25439        -0.57932        -2.54779
H         -9.97023        -2.74463        -2.71483
H         -8.73019        -4.83191        -2.93005
H         -7.75664        -6.98209        -2.44053
H         -6.77777        -9.26035        -1.96822
H         -4.80344       -10.66974        -1.51982
H         -2.52220       -10.90428        -0.46179
H         -0.31984       -10.43785         1.58678
H          2.31064       -11.05573        -0.24631
H          4.80767       -11.17869         0.03901
H          6.99883       -10.04200         0.34484
H          8.19541        -7.87607        -0.05520
H          9.28965        -5.74061        -0.58503
H         10.43144        -3.69444        -1.00791
