         276
 CSIRO Nanostructure Databank - Neutral Graphene Oxide Data Set
C        -11.08754         0.63565        -0.79653
C         -9.80817         1.38388        -1.14734
C         -8.72298         0.72064        -0.29868
C         -7.68736         1.48428         0.47221
C         -6.42245         0.72483         0.88260
C         -5.12864         1.49857         0.93556
C         -3.80853         0.76319         1.14992
C         -2.50776         1.39832         0.59153
C         -1.18997         0.73768         1.07620
C          0.11055         1.49531         0.82135
C          1.38195         0.75577         0.44806
C          2.59309         1.53540        -0.05978
C          3.72140         0.80080        -0.73171
C          5.04919         1.53001        -0.99808
C          6.34113         0.76129        -0.98703
C          7.66871         1.50628        -0.94251
C          8.92809         0.71432        -0.68591
C         10.20340         1.49385        -0.33254
C         11.18417         0.63913         0.45574
C         -9.84833         2.87656        -0.96543
C         -8.80446         3.61400        -0.45739
C         -7.65386         3.01322         0.34934
C         -6.34791         3.54257        -0.22634
C         -5.13383         2.91901         0.48128
C         -3.80235         3.63885         0.40707
C         -2.50354         2.93409         0.61472
C         -1.22633         3.69344         0.32649
C          0.08066         2.98124         0.48642
C          1.24592         3.69586        -0.21330
C          2.60626         3.02419        -0.09541
C          3.76889         3.77680        -0.69470
C          5.08674         3.06993        -1.08890
C          6.31746         3.64972        -0.38037
C          7.65208         2.98557        -0.64543
C          8.84044         3.60185         0.02710
C          9.94669         2.86544         0.26288
C         -8.75227         5.03050        -0.66953
C         -7.60273         5.79563        -0.36315
C         -6.44257         5.02269         0.24846
C         -5.13547         5.74968        -0.04635
C         -3.84125         5.01773        -0.16055
C         -2.55557         5.78716        -0.40786
C         -1.26400         4.97996        -0.54799
C         -0.04461         5.90565        -0.25551
C          1.23530         5.20959         0.09514
C          2.54524         5.94870         0.10549
C          3.78813         5.22829        -0.32967
C          5.06986         5.95744         0.04430
C          6.32417         5.10050        -0.04252
C          7.64284         5.85188        -0.21200
C          8.77319         5.06804         0.48973
C         -7.52827         7.17953        -0.54112
C         -6.38299         7.98376        -0.06378
C         -5.08972         7.22893         0.18067
C         -3.76713         7.96522         0.20338
C         -2.55060         7.29102        -0.36655
C         -1.31396         8.15563        -0.66905
C         -0.00710         7.35406        -0.69599
C          1.28345         8.11450        -0.55265
C          2.56607         7.40784        -0.19738
C          3.84571         8.10293        -0.62241
C          5.19156         7.30618        -0.72491
C          6.38282         8.03418        -0.06711
C          7.49867         7.30858         0.21307
C         -6.22993         9.44292        -0.28278
C         -5.07336        10.11486        -0.06285
C         -3.76981         9.47366         0.24255
C         -2.47562        10.20260         0.10277
C         -1.26648         9.54147        -0.06271
C          0.03949        10.18177         0.05765
C          1.23200         9.54830        -0.15323
C          2.54806        10.18160         0.30600
C          3.82341         9.56258        -0.28967
C          5.12829        10.18181         0.06206
C          6.27178         9.46660         0.18119
C        -11.07909        -0.70359        -0.70519
C         -9.83154        -1.50159        -1.03478
C         -8.57951        -0.76068        -0.54436
C         -7.50111        -1.49970         0.15934
C         -6.37598        -0.76695         0.83988
C         -5.04070        -1.50152         0.70163
C         -3.82693        -0.73386         1.26298
C         -2.52932        -1.56209         1.36231
C         -1.19737        -0.79089         1.07461
C          0.02344        -1.50339         0.55560
C          1.29949        -0.72502         0.24315
C          2.33032        -1.45303        -0.61520
C          3.67331        -0.70390        -0.72402
C          4.95193        -1.36017        -0.25919
C          6.26093        -0.63320        -0.39902
C          7.50367        -1.46513        -0.51777
C          8.82943        -0.75459        -0.42439
C          9.77361        -1.43875         0.55477
C         11.06755        -0.67428         0.70912
C         -9.88277        -2.95239        -0.59304
C         -8.89363        -3.63492         0.02363
C         -7.68477        -2.93465         0.54043
C         -6.47085        -3.68844         1.02046
C         -5.13645        -2.97490         1.18404
C         -3.84335        -3.75131         1.23090
C         -2.64704        -2.95561         0.72914
C         -1.42188        -3.63476         0.19352
C         -0.19111        -2.78413        -0.25022
C          1.10994        -3.59683        -0.44272
C          2.38566        -2.87498        -0.09112
C          3.65009        -3.58079         0.25568
C          4.96179        -2.83262         0.17635
C          6.25326        -3.60441         0.22175
C          7.49324        -2.93640        -0.29290
C          8.78901        -3.64916        -0.07283
C          9.88731        -2.93039         0.25017
C         -9.08076        -5.09106         0.45424
C         -7.77728        -5.90172         0.52214
C         -6.47423        -5.19531         0.87209
C         -5.16304        -5.90770         0.60424
C         -3.85327        -5.24256         0.94533
C         -2.54459        -5.92937         0.54746
C         -1.27294        -5.11596         0.42598
C         -0.02315        -5.83788         0.03115
C          1.15949        -5.07762        -0.48929
C          2.50083        -5.79218        -0.46980
C          3.73475        -5.06983         0.01408
C          4.97797        -5.82788         0.41631
C          6.36041        -5.12225         0.46570
C          7.46481        -5.85931        -0.28568
C          8.80604        -5.12771        -0.44406
C         -7.71841        -7.19796        -0.11979
C         -6.46822        -7.94015        -0.49538
C         -5.16965        -7.10737        -0.31634
C         -3.89126        -7.84021        -0.56712
C         -2.58573        -7.29167        -0.07911
C         -1.35585        -7.95098        -0.64218
C         -0.05881        -7.27260        -0.41074
C          1.20414        -8.07034        -0.11686
C          2.44083        -7.31135        -0.69914
C          3.62596        -8.01292        -0.05376
C          4.93892        -7.29122         0.15789
C          6.09787        -7.99594        -0.51759
C          7.39144        -7.20374        -0.49116
C         -6.21558        -9.27563         0.21657
C         -5.05845        -9.93148         0.03225
C         -3.95276        -9.35357        -0.84045
C         -2.60300       -10.05648        -0.72203
C         -1.40282        -9.43277        -0.74406
C         -0.10218       -10.13517        -1.14834
C          1.19009        -9.50307        -0.64270
C          2.37169       -10.16864        -0.60774
C          3.60074        -9.50149        -0.08386
C          4.94061       -10.14882         0.04662
C          6.09393        -9.45692        -0.08258
O         -5.35978         2.58849         1.87763
O         -0.61112        -7.34823        -1.76429
O         -5.94142         7.57268         1.28942
O         -4.52702        -6.08883         1.90651
O          3.47820         4.79113        -1.69844
O          7.39497        -2.40014        -1.65860
O          2.62933         6.92776         1.18243
O         -3.88033         0.11318         2.44220
O         -2.53515        -3.25513        -0.68402
O          4.94446        -6.78939         1.51006
O         -0.48449         3.73206         1.57345
O          1.02301        -4.31165        -1.72029
O         -0.43235         1.29218         2.16135
O          3.46002        -5.24851        -1.43150
O          1.86431        -0.17636         1.45598
O          0.78609         7.68746        -1.86243
O         -6.74960         4.80990         1.65831
O         -8.88326         0.99181         1.12889
O          3.51733         0.05509        -1.96852
O         -6.63411        -0.09909         2.08156
O          3.65819         9.08964        -1.66321
O         -4.48730        -3.29960         2.43738
O          6.24767         4.06840         1.01722
O         -3.16152         3.59412         1.72113
O          5.55239        -0.59118         0.85827
O         -2.80340         6.58129        -1.61147
O          5.64433         0.95742        -2.22170
O         -7.70627         3.65156         1.67722
O          9.28434        -0.28693        -1.71599
O         -3.62497         8.64289         1.47639
O         -7.40840        -1.23921        -1.30395
O          1.36770        -8.13919         1.27320
O         -4.46100        -6.95051        -1.58620
O          2.76374        -3.08456         1.29627
O          0.37905         5.77727         1.12403
O          5.56738         7.08524        -2.03399
O          3.04801         2.34955         1.09929
O         -0.22325        -1.43446         1.95886
O          7.82171         2.49683        -2.00833
O          6.95278        -5.29284         1.72323
O          3.26375        -8.70052         1.16791
O         -0.28434        -5.50864         1.42440
O         -7.20778        -5.88363         1.90730
O         -7.46305        -3.19173         1.96029
O          5.71861        -2.96746         1.41050
O         -2.39373        -7.13769         1.35237
O         -4.69008         5.22480        -1.34187
O         -1.53634         8.78615        -1.91715
O          9.21266        -5.22253        -1.82070
H          8.76782        -4.50831        -2.32469
O          5.68659        -8.00652        -1.92745
H          6.43970        -8.33618        -2.46218
O         -1.26425         4.51964        -1.90612
H         -1.56317         5.27068        -2.47073
O          1.81133        -1.62292        -1.94340
H          2.14433        -0.88812        -2.51070
O         -2.59515         1.05016        -0.82259
H         -1.90631         1.52951        -1.33159
O         10.88644         1.77409        -1.58357
H         10.71128         1.01148        -2.18040
O          5.27403         3.40875        -2.46834
H          6.06541         2.91469        -2.79523
O          0.99914         3.54964        -1.63650
H          1.69497         4.05614        -2.12358
O         -0.06689       -10.08985        -2.58640
H          0.00865        -9.14361        -2.84538
O         -6.67299        -8.23206        -1.88860
H         -5.91440        -8.78947        -2.20611
O         -4.73785        -1.57277        -0.71411
H         -5.54781        -1.42856        -1.25406
O         -9.74709        -1.53468        -2.49263
H         -8.83900        -1.84306        -2.71461
O         -9.51850         1.18964        -2.54949
H         -9.69382         0.23853        -2.77452
O         -4.34560        -9.56749        -2.22455
H         -3.74077        -9.04837        -2.79653
O          9.06672        -1.31966         1.82475
H          9.50020        -1.89836         2.48618
O          4.98190         6.31004         1.43692
H          5.13676         5.49626         1.96674
O         -0.53942        -2.25422        -1.54114
H         -0.32179        -2.93429        -2.21797
O          2.60714        10.04727         1.73624
H          2.64041         9.09171         1.96182
O          2.44650        -7.53424        -2.10516
H          2.95563        -6.80593        -2.52945
O         10.01706         5.70958         0.23236
H         10.07267         5.83508        -0.73984
O          7.93770         5.85710        -1.62569
H          7.17029         6.32726        -2.06879
O         -9.99280        -5.76276        -0.40242
H        -10.90714        -5.52823        -0.14899
O         -6.34314         3.29226        -1.62339
H         -5.68253         3.89128        -2.04834
O         -2.42877        -1.92507         2.75209
H         -2.54411        -1.11404         3.29581
H         11.90108        -1.20186         1.20149
H         12.14271         1.13325         0.68237
H         10.80511         3.35469         0.75008
H          8.60134         5.09164         1.59777
H          8.37641         7.80041         0.66331
H          7.19528         9.98348         0.48810
H          5.13650        11.25761         0.29562
H          2.53087        11.27904         0.08539
H          0.04782        11.22259         0.41939
H         -2.47573        11.27469         0.35816
H         -5.05538        11.20009        -0.24733
H         -7.11963        10.00367        -0.60771
H         -8.38122         7.70388        -1.00037
H         -9.61544         5.52328        -1.14390
H        -10.65122         3.40927        -1.50067
H        -12.01082         1.20105        -0.59942
H        -11.99920        -1.25386        -0.45721
H        -10.77790        -3.50670        -0.91891
H         -9.50544        -5.06437         1.49653
H         -8.62586        -7.51255        -0.65975
H         -7.01402        -9.71598         0.83172
H         -4.89554       -10.91306         0.50269
H         -2.63746       -11.15098        -0.84593
H         -0.14486       -11.21285        -0.85240
H          2.44668       -11.21733        -0.93209
H          4.96987       -11.21952         0.30257
H          7.05410        -9.97815         0.05596
H          8.27862        -7.71855        -0.89782
H          9.58349        -5.65963         0.16243
H         10.86368        -3.42677         0.37062
