         244
 CSIRO Nanostructure Databank - Neutral Graphene Oxide Data Set
C          1.24038         2.13433         1.08931
C          1.17927         3.41711         0.63189
C          2.48351         1.43340         1.18961
C          2.43631         4.09022         0.12645
C          1.20613         6.30577        -0.17557
C          1.21585         7.68226        -0.43451
C          2.39379         5.60816         0.04523
C          2.41010         8.41094        -0.44134
C          1.16487        10.66610        -0.57850
C          1.17770        11.99776        -0.36040
C          2.43447         9.88235        -0.88300
C          2.41667        12.77007        -0.33575
C          1.19075        14.95227        -0.36657
C          1.18948        16.33210        -0.32539
C          2.40534        14.21619        -0.36686
C          2.40581        17.05631        -0.25547
C          2.39306        18.49815        -0.14401
C          3.69450         2.11003         1.03459
C          3.63403         3.62398         0.95942
C          4.93586         1.45716         1.06996
C          4.91711         4.26381         0.47720
C          3.62593         6.31793        -0.00951
C          3.62737         7.72681        -0.21993
C          4.87872         5.59624         0.08855
C          4.89918         8.45877        -0.23170
C          3.59627        10.58625        -0.05672
C          3.62602        12.07195        -0.31200
C          4.90152         9.87727        -0.24201
C          4.86804        12.76209        -0.44269
C          3.64012        14.93641        -0.36178
C          3.63017        16.36091        -0.26887
C          4.87405        14.18819        -0.46442
C          4.89761        17.13575        -0.15518
C          3.53652        19.23442        -0.06745
C          4.85422        18.64348        -0.13820
C          6.16304         2.14811         0.87711
C          6.14892         3.54776         0.55825
C          7.40028         1.45912         0.94349
C          7.39296         4.24449         0.37161
C          6.12249         6.26104        -0.43790
C          6.11683         7.75692        -0.26444
C          7.39821         5.61185         0.02657
C          7.34735         8.45731        -0.35065
C          6.11368        10.58337        -0.41929
C          6.10706        12.04939        -0.50803
C          7.32776         9.86654        -0.47466
C          7.31478        12.75471        -0.61019
C          6.10760        14.86556        -0.57643
C          6.13894        16.33338        -0.43280
C          7.33715        14.17424        -0.62659
C          7.39816        16.94653        -0.87179
C          5.95160        19.46430         0.06150
C          7.31694        19.05186        -0.22010
C          8.62818         2.12917         0.82187
C          8.62977         3.56568         0.60750
C          9.86278         1.42826         0.80715
C          9.83896         4.28140         0.56833
C          8.61304         6.33755        -0.01584
C          8.60648         7.74661        -0.28079
C          9.84537         5.66069         0.27072
C          9.84387         8.46177        -0.33025
C          8.58593        10.57103        -0.91568
C          8.62207        12.02142        -0.43169
C          9.86586         9.85916        -0.54807
C          9.84285        12.76750        -1.01018
C          8.61464        14.89765        -0.56723
C          8.59549        16.35052        -0.64788
C          9.82444        14.22755        -0.60811
C          9.84837        17.20496        -0.69053
C          8.51479        19.25441         0.41049
C          9.76198        18.56536         0.06484
C         11.09789         2.10023         0.75230
C         11.10607         3.59106         1.00932
C         12.31135         1.42227         0.62221
C         12.36470         4.28379         0.55135
C         11.09280         6.38525         0.18104
C         11.07681         7.73902        -0.13574
C         12.35183         5.65268         0.31692
C         12.35791         8.45091        -0.47887
C         11.08319        10.62658        -0.41112
C         11.07523        12.03129        -0.53916
C         12.32277         9.93344        -0.19328
C         12.25750        12.82416        -0.21060
C         11.06500        14.95426        -0.47905
C         10.99588        16.40768        -0.06336
C         12.26378        14.29199        -0.40739
C         12.27632        17.17535        -0.20501
C         10.94955        19.12856         0.45847
C         12.25344        18.50923         0.21121
C         13.56732         2.10415         0.53609
C         13.59789         3.54885         0.52619
C         14.76366         1.39838         0.35613
C         14.83328         4.22419         0.41196
C         13.60313         6.38027         0.26245
C         13.56748         7.75645         0.08391
C         14.86646         5.66377         0.37736
C         14.77197         8.53598         0.29688
C         13.54939        10.63113        -0.09592
C         13.54690        12.10547         0.05573
C         14.77304         9.96257        -0.04388
C         14.85008        12.85597        -0.00905
C         13.52701        15.05001        -0.04051
C         13.52079        16.47869        -0.64071
C         14.80303        14.30160        -0.41868
C         14.78457        17.20279        -0.27129
C         13.47669        19.17577         0.44144
C         14.73378        18.50060         0.27342
C         16.00746         2.06751         0.20051
C         16.06056         3.49763         0.29758
C         17.17819         1.36653        -0.17506
C         17.31655         4.16787         0.21682
C         16.09699         6.32779         0.30014
C         16.09570         7.78423         0.39734
C         17.37756         5.63085         0.25724
C         17.32205         8.53460         0.08828
C         16.04408        10.61903        -0.49965
C         16.12187        12.11336        -0.20567
C         17.30316         9.87722        -0.11694
C         17.36400        12.83946        -0.74358
C         16.09101        15.04302        -0.64672
C         16.09701        16.58444        -0.68798
C         17.38154        14.32438        -0.42399
C         17.27625        17.15034         0.05297
C         15.94367        19.12937         0.67966
C         17.18881        18.43590         0.62721
C         18.38708         2.04193        -0.37549
C         18.48699         3.42647        -0.03350
C         19.45584         1.40808        -1.12718
C         19.80181         4.09553        -0.09736
C         18.58860         6.30866         0.24258
C         18.62703         7.79700        -0.01061
C         19.92798         5.56288         0.35066
C         19.71990         8.63752         0.61917
C         18.54805        10.66357         0.02270
C         18.57932        12.13603        -0.17345
C         19.82017         9.94411         0.25804
C         19.88704        12.84215        -0.13801
C         18.55144        14.96278        -0.12250
C         18.61266        16.48685        -0.16200
C         19.82845        14.24454         0.03300
C         19.72413        17.04935         0.68884
C         18.35481        19.04185         1.17971
C         19.59304        18.35709         1.24230
C         20.52819         2.11110        -1.56389
C         20.83613         3.43818        -1.00196
C         21.79647         4.31576        -1.69661
C         21.12709         6.27384        -0.34448
C         21.52905         7.49610         0.13259
C         21.88867         5.63278        -1.40003
C         22.53166         8.47251        -0.31092
C         21.05560        10.61077        -0.31744
C         21.09256        12.11194        -0.02315
C         22.35925         9.82194        -0.28479
C         22.26545        12.83306         0.23654
C         21.01422        14.93673         0.39363
C         20.93162        16.34001         0.83150
C         22.21764        14.21003         0.46450
C         22.01183        16.95687         1.50033
C         20.70629        18.95154         1.89869
C         21.90027        18.25561         2.00994
O          7.37020        18.24178        -1.38848
O          2.66984         9.91702        -2.23447
O         15.30825        14.48634        -1.78005
O         15.42473         8.28434         1.60587
O         20.92869         3.35234         0.47384
O         15.72805        12.54456         1.12205
O         18.31545        11.62111         1.17381
O          5.75989        16.68886         0.96866
O         12.74348        12.53122         1.20862
O         20.80116         8.00565         1.22364
O          6.08463         6.04205        -1.90458
H          5.24093         6.42489        -2.23013
O         15.98509        10.48862        -1.96511
H         16.62742        11.14319        -2.34925
O         10.73280        16.33774         1.37248
H         11.55274        15.98121         1.78893
O         18.99904         7.88091        -1.46433
H         18.24348         7.52528        -1.98152
O         11.11868         3.72580         2.47840
H         11.94476         3.30701         2.80164
O          3.17549        10.38268         1.32415
H          3.84117        10.80318         1.90772
O         16.27581        16.92577        -2.12050
H         15.47503        16.56177        -2.57340
O         17.39292        12.72753        -2.19252
H         16.71611        13.36182        -2.53543
O         20.73980        10.55989        -1.76249
H         20.44654         9.64240        -1.96799
O         13.51992        15.19598         1.40314
H         13.39971        14.28553         1.77654
O         18.98800        16.80531        -1.55413
H         18.14996        16.83249        -2.08101
O          3.40557         4.10105         2.31473
H          4.14417         3.78586         2.87588
O         10.20513        17.48098        -2.06407
H          9.43731        17.93446        -2.47541
O         20.21015         5.50415         1.76857
H         20.84702         4.76511         1.89624
O          8.82698        11.93775         1.00404
H          8.84510        12.84930         1.36546
O         13.45662        16.34460        -2.10534
H         12.58956        16.69671        -2.40610
O         12.48075         8.34892        -1.95676
H         12.44169         7.39571        -2.18619
O          8.49195        10.56248        -2.38505
H          8.44598         9.62628        -2.67465
O          9.85246        12.79783        -2.45930
H          9.50842        11.93111        -2.78927
O          2.65577         3.61732        -1.23436
H          1.90928         3.92810        -1.78760
H          0.31475         1.60197         1.35515
H          0.20081         3.90530         0.51250
H          2.47942         0.34994         1.38037
H          0.24257         5.77631        -0.17794
H          0.25932         8.18160        -0.64037
H          0.19203        10.16394        -0.69565
H          0.22002        12.52788        -0.25344
H          0.22810        14.42581        -0.39418
H          0.23821        16.88343        -0.32130
H          1.41608        19.00248        -0.11228
H          4.96376         0.36716         1.22499
H          3.47364        20.32911         0.02466
H          7.39434         0.37261         1.11551
H          5.76600        20.50802         0.36555
H          9.84801         0.32737         0.79285
H          8.55435        19.93831         1.27239
H         12.30644         0.32437         0.53842
H         10.94225        20.11345         0.95165
H         14.73870         0.30007         0.29582
H         13.47592        20.21175         0.81046
H         17.11506         0.28978        -0.39176
H         15.91150        20.14091         1.10890
H         19.28480         0.38163        -1.48483
H         18.27888        20.05263         1.60722
H         21.23702         1.66929        -2.28010
H         22.40637         3.88219        -2.50242
H         22.61994         6.25648        -1.93746
H         23.52729         8.09153        -0.59649
H         23.23255        10.41561        -0.60447
H         23.23252        12.31532         0.30607
H         23.15596        14.72573         0.70969
H         22.96021        16.41976         1.63368
H         20.60574        19.96203         2.31965
H         22.76019        18.71454         2.51736
