         671
 CSIRO Nanostructure Databank - Neutral Graphene Oxide Data Set
C          6.00830        31.76145         1.54053
C          5.95137        33.11616         1.37464
C          8.31516        27.39341         1.18938
C          8.32055        28.78663         1.07666
C          7.20905        29.58007         1.43182
C          8.33593        31.65722         0.74438
C          7.19459        30.98343         1.24150
C          8.23863        33.08196         0.40875
C          7.07078        33.86714         0.85528
C          8.28169        35.99814         0.44736
C          7.08394        35.24191         0.75718
C          8.27244        37.40372         0.45816
C         10.82651        23.14640         1.25714
C         10.36402        24.24665         0.61149
C          9.28745        25.16852         0.94624
C         10.77713        27.24132         0.86174
C          9.44130        26.54777         0.89028
C         10.80113        28.76712         0.78921
C          9.50629        29.44529         0.39967
C         10.76658        31.61614         0.33050
C          9.57306        30.95415         0.53119
C         10.81770        33.09369         0.17234
C          9.52540        33.85152         0.09700
C         10.74847        36.02502         0.28244
C          9.52028        35.30197         0.28162
C         10.70223        37.42414         0.15803
C          9.46770        38.15702         0.22434
C         10.57231        40.30265        -0.62008
C          9.47161        39.56311         0.11335
C         10.73026        41.79558        -0.39103
C         13.19007        18.77972         0.29292
C         13.26545        20.28578         0.49051
C         12.14687        20.99654         0.80640
C         13.34372        23.14307         0.38950
C         12.19682        22.47932         1.14773
C         13.44441        24.57111        -0.14829
C         12.18425        25.34121        -0.01113
C         13.29744        27.34542         0.72177
C         12.07658        26.59740         0.55144
C         13.27070        28.77266         0.72969
C         12.06816        29.45042         0.52965
C         13.24407        31.62131         0.76208
C         12.08525        30.89515         0.08548
C         13.19049        32.97467         1.07322
C         12.07447        33.83865         0.56759
C         13.16282        36.13235         0.55018
C         12.01942        35.34794         0.56767
C         13.17308        37.40356        -0.25474
C         11.96911        38.23812         0.17892
C         13.21431        40.26155        -0.63640
C         11.90553        39.55320        -0.57048
C         13.24232        41.73581        -0.29015
C         11.93541        42.47410        -0.51385
C         13.19564        44.61978        -0.89105
C         11.99221        43.89176        -0.65504
C         13.24596        46.00619        -0.93047
C         15.81804        14.55562        -0.19316
C         15.78021        15.97590        -0.10190
C         14.56716        16.69600         0.09849
C         15.71965        18.83652        -0.13347
C         14.53000        18.08747         0.10831
C         15.67523        20.28205        -0.12967
C         14.53060        20.96964         0.25057
C         15.79367        23.13047         0.14965
C         14.52240        22.42664         0.26193
C         15.86787        24.53817         0.67157
C         14.60704        25.30471         0.43844
C         15.86112        27.35571         1.04349
C         14.55947        26.64712         0.69834
C         15.79387        28.84379         0.83487
C         14.52332        29.51805         0.83384
C         15.72095        31.57036         1.50183
C         14.46351        30.89933         0.98320
C         15.65138        33.06579         1.46243
C         14.39116        33.56086         1.62452
C         15.64465        36.11370         0.67221
C         14.40096        35.70522         1.10443
C         15.68827        37.44815         0.10931
C         14.48060        38.14852        -0.12303
C         15.71147        40.21493        -0.45357
C         14.49130        39.53275        -0.36401
C         15.74936        41.63545        -0.97600
C         14.45933        42.40466        -0.83345
C         15.75067        44.59075        -0.81971
C         14.45538        43.83777        -1.04253
C         15.65137        46.02856        -0.35432
C         14.53828        46.77149        -1.12029
C         15.65921        48.85369        -0.28034
C         14.52137        48.20992        -0.64001
C         15.60781        50.31476         0.14027
C         18.27382        10.30881        -0.25709
C         18.28818        11.68546        -0.34010
C         17.05944        12.43550        -0.39663
C         18.31952        14.57490        -0.06386
C         17.02442        13.82247        -0.28516
C         18.23325        15.99325        -0.58672
C         16.97761        16.73450        -0.29486
C         18.19254        18.89065        -0.74067
C         16.94524        18.12562        -0.34184
C         18.13954        20.27741        -0.07926
C         16.90828        21.04721        -0.59731
C         18.22496        23.17782        -0.19532
C         16.95941        22.46843        -0.11073
C         18.19583        24.61495        -0.21259
C         17.06152        25.31056         0.17027
C         18.18145        27.48415         0.02915
C         17.05099        26.73207         0.32254
C         18.21931        28.91003         0.30138
C         16.97630        29.56287         0.68070
C         18.11034        31.74528         0.82281
C         16.97247        30.99231         0.90669
C         18.16513        33.14796         1.34074
C         16.87689        33.96533         1.64106
C         18.15299        36.05621         0.76492
C         16.87726        35.22177         0.67256
C         18.15922        37.43626         0.42137
C         16.92831        38.14387         0.10205
C         18.19193        40.24329        -0.18458
C         16.92911        39.53350        -0.18291
C         18.22827        41.64511        -0.33736
C         16.93157        42.36726        -0.34277
C         18.20972        44.57988        -0.38274
C         16.93881        43.84552        -0.32021
C         18.19864        45.98886        -0.34765
C         16.98637        46.73834        -0.37423
C         18.13905        48.86763         0.01882
C         16.96185        48.16413        -0.21396
C         18.14062        50.33863         0.43775
C         16.91376        51.03565        -0.09515
C         18.22416        53.01661        -0.70420
C         16.96687        52.30401        -0.56603
C         18.25496        54.38569        -0.86982
C         20.81480         5.97465        -0.15741
C         20.74714         7.38798        -0.20559
C         19.54944         8.08121        -0.18091
C         20.78574        10.26123        -0.29281
C         19.51347         9.55438         0.12036
C         20.75548        11.68736        -0.52210
C         19.56455        12.40675        -0.44753
C         20.75630        14.55563        -0.68217
C         19.57423        13.84916        -0.50917
C         20.81086        16.00951        -0.68144
C         19.51613        16.73131        -0.75493
C         20.69666        18.86532        -0.52823
C         19.52015        18.18902        -0.54122
C         20.75028        20.32485        -0.28558
C         19.45959        21.05552        -0.11030
C         20.69998        23.22193        -0.47444
C         19.44429        22.51588        -0.33009
C         20.69830        24.63481        -0.59911
C         19.39883        25.32586        -0.65626
C         20.66065        27.55394        -0.55286
C         19.36904        26.84871        -0.56829
C         20.57614        29.02642        -0.52410
C         19.34903        29.66120         0.02504
C         20.61689        31.90089         0.15541
C         19.31345        31.13564         0.19125
C         20.67700        33.27662         0.69880
C         19.42204        33.92904         1.16297
C         20.60426        36.09554         1.00258
C         19.37846        35.40981         1.03851
C         20.63204        37.45813         0.61402
C         19.39907        38.13360         0.33216
C         20.63239        40.23872        -0.16760
C         19.40870        39.53679        -0.00680
C         20.67922        41.64106        -0.38060
C         19.44303        42.34758        -0.42052
C         20.77481        44.57246        -0.50373
C         19.43194        43.81280        -0.61869
C         20.66077        45.99154        -0.10815
C         19.46546        46.67422        -0.13567
C         20.64197        48.85172         0.56321
C         19.38378        48.10832         0.25596
C         20.72656        50.38388         0.55726
C         19.44823        51.02385         0.04952
C         20.69937        52.90179        -1.04248
C         19.46082        52.26105        -0.52777
C         20.70370        54.37956        -1.36554
C         19.45379        55.16292        -1.06497
C         20.41777        57.43501        -1.40572
C         19.37692        56.54381        -0.94461
C         20.90255        58.61939        -0.91350
C         23.33044         3.21019        -0.02036
C         22.11779         3.87876        -0.13242
C         23.26784         6.01027         0.24828
C         22.06099         5.29245        -0.02312
C         23.19397         7.50290         0.47346
C         22.07519         8.10373        -0.39199
C         23.23157        10.38710         0.02192
C         21.97757         9.59212        -0.22893
C         23.31547        11.59166        -0.91570
C         21.99643        12.34837        -0.96724
C         23.29580        14.56031        -0.79790
C         22.01044        13.85209        -1.00986
C         23.32421        16.05600        -0.99708
C         21.97413        16.71104        -0.82451
C         23.21979        18.92943        -0.63937
C         21.95352        18.20614        -1.04486
C         23.20120        20.37637        -0.65804
C         21.98730        21.08030        -0.58353
C         23.16448        23.25445        -0.62539
C         21.94715        22.51093        -0.54563
C         23.12862        24.67331        -0.63876
C         21.90531        25.38450        -0.66136
C         23.10994        27.60396        -0.67092
C         21.87862        26.86649        -0.67614
C         23.14816        29.02150        -0.56959
C         21.88288        29.80677        -0.58028
C         23.08468        31.80422         0.24055
C         21.90404        31.18470        -0.02545
C         23.13028        33.12269         0.99482
C         21.85268        33.91899         0.87946
C         23.14161        36.06731         0.93713
C         21.87397        35.35503         1.36793
C         23.13128        37.42363         0.57965
C         21.88637        38.10251         0.35599
C         23.20769        40.22375        -0.33687
C         21.85476        39.43478        -0.22517
C         23.15526        41.65377        -0.13525
C         21.95271        42.37006        -0.30121
C         23.22523        44.47124         0.10880
C         21.98833        43.79345        -0.20755
C         23.24603        45.95636         0.08032
C         21.94694        46.70198         0.07996
C         23.23523        48.84364         0.55642
C         21.94307        48.10663         0.58005
C         23.19350        50.25328         0.11466
C         22.00720        50.88739        -0.09367
C         23.20669        53.03046        -0.51558
C         22.03432        52.15002        -0.93254
C         23.21233        54.35460        -0.80292
C         22.04853        55.03652        -1.36286
C         23.40899        57.10281        -1.78389
C         22.19655        56.31673        -1.83370
C         23.40500        58.61822        -1.99845
C         22.13957        59.27975        -1.32491
C         23.37038        61.41236        -1.32118
C         22.18276        60.63678        -1.11121
C         24.51165         3.92572         0.20577
C         25.77888         6.05360         0.63844
C         24.48435         5.32612         0.34739
C         25.75091         7.51585         0.26450
C         24.51221         8.21317         0.20935
C         25.72401        10.31124        -0.17661
C         24.51241         9.58991        -0.03143
C         25.71080        11.75121        -0.27966
C         24.50286        12.43810        -0.50390
C         25.65451        14.58017         0.10727
C         24.45236        13.86676        -0.49896
C         25.68532        16.06719        -0.13690
C         24.34943        16.76288        -0.08923
C         25.65094        18.94234        -0.33882
C         24.39303        18.24244        -0.40670
C         25.66186        20.38488        -0.49522
C         24.44322        21.09736        -0.62876
C         25.65710        23.22583        -0.64413
C         24.43235        22.53442        -0.65161
C         25.66230        24.69693        -0.31120
C         24.41970        25.43231        -0.84673
C         25.66800        27.57319        -0.70268
C         24.38560        26.87585        -0.30100
C         25.65555        29.05996        -0.92277
C         24.36169        29.71448        -0.47112
C         25.62109        31.91908        -0.08631
C         24.33921        31.16600        -0.22654
C         25.67746        33.14646         0.82168
C         24.38689        33.93899         0.81326
C         25.64401        36.06920         1.14848
C         24.37526        35.30763         0.96039
C         25.65526        37.53286         0.85600
C         24.38451        38.16052         0.41311
C         25.68698        40.19379        -0.15254
C         24.41618        39.47617         0.04687
C         25.66828        41.69819        -0.07586
C         24.37450        42.29370         0.48484
C         25.64499        44.47306         0.91602
C         24.38586        43.79262         0.40677
C         25.68335        45.95766         0.66026
C         24.49120        46.67320         0.47439
C         25.71638        48.79684         0.55556
C         24.50412        48.08491         0.42388
C         25.72790        50.24714         0.39794
C         24.52072        50.90499        -0.25573
C         25.69748        53.14415        -0.02508
C         24.40037        52.38974         0.15334
C         25.74262        54.46707        -0.32957
C         24.43548        55.20387        -0.53748
C         26.28107        57.45629        -0.88429
C         24.51347        56.33960        -1.53525
C         25.84742        58.84184        -0.92165
C         24.67354        59.33249        -1.45846
C         24.57210        60.78576        -1.44546
C         26.94537         8.20069         0.07498
C         28.18264        10.33147        -0.25358
C         26.97083         9.61177        -0.13010
C         28.19862        11.74851        -0.30721
C         26.95402        12.47218        -0.24529
C         28.15409        14.60963        -0.24677
C         26.95465        13.88236        -0.19330
C         28.15337        16.05173        -0.16905
C         26.86909        16.77215        -0.14110
C         28.10268        18.96895        -0.04592
C         26.84146        18.22611        -0.18118
C         28.13859        20.41665        -0.34571
C         26.89788        21.09860        -0.49665
C         28.13338        23.22517        -0.65380
C         26.89106        22.52258        -0.60919
C         28.11867        24.66631        -0.97273
C         26.90113        25.44334        -0.74037
C         28.14847        27.62797        -0.93444
C         26.86886        26.85552        -0.82645
C         28.12009        29.03737        -0.45737
C         26.93723        29.70734        -0.40253
C         28.19047        31.86470         0.16763
C         26.92373        31.18770        -0.24444
C         28.17624        33.25044         0.63932
C         26.90012        34.01925         0.44145
C         28.20101        36.08040         0.95204
C         26.94285        35.29563         1.27264
C         28.17425        37.46342         0.73613
C         26.95237        38.20406         0.55731
C         28.18914        40.22825        -0.40125
C         26.95328        39.49061         0.05885
C         28.13744        41.69767         0.00051
C         26.96027        42.39584         0.17137
C         28.12953        44.54409         0.51348
C         26.94277        43.80169         0.50824
C         28.16902        45.93994         0.77178
C         26.91389        46.65803         0.78105
C         28.15494        48.79408         1.05977
C         26.90774        48.07429         0.77363
C         28.14040        50.30666         0.98157
C         26.88138        50.96024         0.55721
C         28.18738        53.01862        -0.14117
C         26.93214        52.46951         0.53673
C         28.18027        54.52766         0.00362
C         27.01814        55.22170        -0.14594
C         26.98809        56.70225         0.00366
C         29.40230        12.48278        -0.38349
C         30.61783        14.62367        -0.40106
C         29.40750        13.89850        -0.36465
C         30.63545        16.03923        -0.27178
C         29.36178        16.73393        -0.17641
C         30.64446        18.90053        -0.49866
C         29.38895        18.20472        -0.02412
C         30.62961        20.39913        -0.27775
C         29.35766        21.11121        -0.35385
C         30.60411        23.26690        -0.44899
C         29.35571        22.54175        -0.51519
C         30.66011        24.63890        -0.61386
C         29.46648        25.39866        -1.03112
C         30.67788        27.54401        -0.33538
C         29.47105        26.89728        -0.91719
C         30.65907        28.90148         0.00846
C         29.45796        29.76889        -0.33924
C         30.57619        31.70365         0.96833
C         29.28977        30.94211         0.65071
C         30.60197        33.17313         0.95120
C         29.39732        33.90725         0.89999
C         30.69140        36.04076         0.85898
C         29.41956        35.36261         0.95855
C         30.71837        37.44247         0.66580
C         29.45149        38.18730         0.65644
C         30.77152        40.19498        -0.31663
C         29.45824        39.60533         0.16208
C         30.70525        41.70706        -0.12259
C         29.42634        42.38064         0.38596
C         30.63295        44.54601         0.61683
C         29.39851        43.88806         0.00711
C         30.68114        45.95480         0.83975
C         29.42579        46.66589         0.82981
C         30.65052        48.81540         0.92842
C         29.42679        48.06867         0.93955
C         30.63146        50.23250         0.84874
C         29.43371        50.99693         0.72238
C         29.44377        52.32226         0.32412
C         31.83934        16.74886        -0.18778
C         33.12294        18.95799        -0.11356
C         31.84608        18.21174         0.16761
C         33.10597        20.33373        -0.19072
C         31.82628        21.05960        -0.19997
C         33.08927        23.18923        -0.64520
C         31.86361        22.55284         0.01651
C         33.11622        24.67161        -0.35044
C         31.90101        25.36863        -0.39281
C         33.10703        27.47002         0.05357
C         31.88290        26.79050        -0.21161
C         33.09555        28.86947         0.32179
C         31.86209        29.54895         0.39556
C         33.13351        31.72729         0.77260
C         31.87132        30.95733         0.85777
C         33.13714        33.10597         0.92952
C         31.88754        33.85687         1.34561
C         33.14687        35.98700         0.79888
C         31.91038        35.31620         0.95629
C         33.17477        37.41345         0.64637
C         31.95680        38.14692         0.55662
C         33.20363        40.28676         0.48470
C         31.98346        39.55906         0.34702
C         33.23193        41.71604         0.49057
C         31.94532        42.41809         0.31120
C         33.54782        44.74811         0.95714
C         31.69789        43.72100         0.93543
C         33.23278        46.08038         0.65137
C         31.93741        46.68771         0.86735
C         31.87376        48.09679         0.87834
C         34.33680        21.08505        -0.19313
C         35.57373        23.20528        -0.16335
C         34.37105        22.46903        -0.28780
C         35.59081        24.61468        -0.10452
C         34.34280        25.34899        -0.15140
C         35.57577        27.45625         0.23755
C         34.34428        26.75492         0.04947
C         35.57421        28.86292         0.42141
C         34.34364        29.58151         0.48354
C         35.60056        31.69287         0.73720
C         34.35711        30.99081         0.63067
C         35.60788        33.10878         0.78536
C         34.37722        33.83419         0.83073
C         35.62166        35.94786         0.30103
C         34.37130        35.24509         0.75536
C         35.64383        37.42081         0.59840
C         34.42493        38.12841         0.61456
C         35.67542        40.26541         0.64293
C         34.42855        39.55640         0.62042
C         35.66673        41.68530         0.60077
C         34.46940        42.43622         0.57361
C         34.56383        43.88446         0.50881
C         36.80115        25.33594         0.06206
C         38.04656        27.45649         0.35704
C         36.81676        26.72977         0.21793
C         38.06646        28.82911         0.53515
C         36.81613        29.56712         0.59138
C         38.07931        31.64530         1.22679
C         36.82043        30.95168         0.77405
C         38.09143        33.12078         0.93021
C         36.87392        33.82657         0.80025
C         38.11739        35.94851         0.70597
C         36.88787        35.22869         0.66855
C         38.10729        37.37178         0.65335
C         36.89279        38.11573         0.64506
C         36.88617        39.53231         0.68501
C         39.30918        29.57309         0.58776
C         40.56661        31.69064         0.79798
C         39.33935        30.92560         0.80729
C         40.56306        33.05024         0.87947
C         39.32480        33.81544         0.88553
C         39.33152        35.21548         0.79657
O         20.49342        53.38249        -2.42777
O         18.72958        16.26416        -1.94479
O          8.65268        33.37976        -0.97476
O         28.82991        24.93795        -2.24419
O         27.79198        31.81666        -1.26320
O         22.55661        39.64591        -1.49526
O         11.09422        24.68524        -0.54398
O         28.96805        27.53171        -2.15028
O         11.78813        33.47806        -0.86384
O         14.26243        34.83094         2.17271
O         31.21966        31.13689         2.20170
O         32.62386        44.13551         1.86824
O         12.59548        39.72088        -1.85948
O         24.92362        32.03324        -1.35147
O         25.76057        56.72890        -1.98029
O         19.09551        33.30893         2.48145
O         10.84162        28.07646         2.07328
O         19.83472        48.34269         1.68205
O         20.27065        20.69602         1.07996
O         31.43901        42.43743        -1.13498
O         28.83118        18.67284         1.23236
O         25.54630        37.03984         2.25190
O         21.88097        13.05545        -2.25900
O         22.61249        48.43244         1.85255
O         19.15926        26.14821        -1.84626
O         29.44798        39.38735         1.58032
O         15.36165        44.28814        -2.17348
O         25.61401        41.05683        -1.37576
O         28.07664        49.63880         2.28132
O         19.74338        31.85730        -1.02766
O         16.65791        43.06882         0.92506
O         21.07975        29.64100        -1.77756
O         22.73318        46.55336        -1.16822
O         21.12852        56.90482        -2.51238
O         20.17708        44.25774        -1.80213
O         23.57232        11.07170        -2.24101
H         23.27206        11.76411        -2.87389
O         23.31297        58.92437        -3.40224
H         22.50530        58.48273        -3.74202
O         25.67590        24.69344         1.16568
H         24.98149        24.06922         1.46846
O         25.59448        44.32172         2.40492
H         24.99615        45.01686         2.75554
O         16.91310        34.43087         2.99182
H         17.83816        34.30200         3.31909
O         18.45118        14.74156         1.38539
H         18.40199        13.85098         1.79341
O         15.20980        45.99574         1.03122
H         15.93005        45.60972         1.57425
O         12.33952        30.87834        -1.34677
H         12.27441        31.81692        -1.65005
O         28.06715        52.70085        -1.56052
H         28.78488        53.16387        -2.04018
O         30.71007        18.67640        -1.92764
H         31.48403        19.16654        -2.27695
O         12.35613        18.49050        -0.84674
H         12.78060        18.87885        -1.63915
O         23.82828        16.63600         1.27624
H         24.37390        17.20783         1.85769
O         16.04728        41.55228        -2.40494
H         15.90968        42.45534        -2.78038
O         19.54847         9.61824         1.60657
H         20.37735         9.17458         1.89286
O         21.93243        35.29138         2.82958
H         22.40026        34.45313         3.06346
O         20.83905        50.77400         1.95899
H         21.47941        50.14912         2.37504
O         24.61313        25.50918        -2.27781
H         23.89018        26.04713        -2.66398
O         13.42746        41.70384         1.17546
H         13.55457        42.62562         1.48623
O         17.83973        20.04232         1.31793
H         18.70568        19.97227         1.78733
O         26.99752        52.86114         1.93593
H         26.17909        52.51878         2.36272
O         23.16902        32.74476         2.42913
H         24.10954        32.48882         2.62668
O         31.99443        22.77566         1.44862
H         31.33332        22.21390         1.90480
O         16.02229        24.42272         2.14127
H         16.82171        23.87875         2.31014
O         24.34012        26.90066         1.15853
H         25.04779        26.29131         1.49083
O         31.63067        18.29962         1.61387
H         32.36036        17.81873         2.05668
O         22.82125         7.75549         1.86825
H         23.25952         7.07913         2.42667
O         14.51424        50.98690        -0.48062
H         14.61486        50.91351        -1.45155
O         25.45651        14.42380         1.55704
H         24.65763        14.95845         1.78563
O         12.64541        22.51988         2.55490
H         13.51621        22.07030         2.60427
O         29.78385        30.29064        -1.64771
H         29.60997        29.56784        -2.29460
O         22.49695         7.87736        -1.76607
H         21.95474         8.44296        -2.35441
O         29.55105        42.30510         1.83394
H         28.68383        42.52577         2.23549
O         25.69235        29.29956        -2.36986
H         25.63901        30.27485        -2.50023
O         30.92138        39.91595        -1.72296
H         31.41255        40.67026        -2.11986
O         24.78115        50.79699        -1.66471
H         23.96713        51.07990        -2.15576
O         16.10181        27.17009         2.46926
H         16.06123        26.19547         2.64378
O         28.23999        40.14091        -1.84430
H         27.39315        40.51996        -2.17971
O         24.15640        52.38619         1.59799
H         23.88835        53.29559         1.85290
O         25.87417        32.60051         2.15730
H         26.30726        33.31488         2.69900
O         28.79142        30.37597         1.88452
H         29.55805        30.32581         2.50526
O         29.37064        44.06696        -1.41723
H         30.17376        43.63255        -1.79034
O         10.10155        40.25531        -2.01357
H         10.91035        40.24956        -2.57912
O         18.01076        50.36627         1.88539
H         18.81970        49.92875         2.25088
O         32.90738        23.03205        -2.08015
H         33.64638        23.48954        -2.53231
O         26.77586        34.41001        -0.94032
H         26.98056        33.61528        -1.49224
O         21.87684        18.41435        -2.49980
H         21.02820        18.03263        -2.81158
O         24.16561        55.88064         0.74549
H         24.99952        56.31994         1.02605
O         23.11080        10.91074         1.37596
H         23.05278        10.13764         1.97958
O          9.36639        29.17973        -1.02938
H          8.68258        29.78469        -1.38675
O         15.75427        31.23892         2.94007
H         16.38190        31.85831         3.37194
O         18.16046        18.96944        -2.20575
H         18.18767        18.02870        -2.51917
O         12.16678        38.64479         1.56445
H         12.20018        37.83683         2.11936
O         27.05625        34.91041         2.67343
H         26.78131        35.70009         3.19610
O         13.01653        37.01725        -1.64054
H         12.99380        37.85006        -2.16969
O         16.88439        34.61546        -0.65591
H         16.84282        35.32969        -1.32675
O         14.84767        46.80476        -2.53410
H         15.79080        47.05389        -2.63221
O         35.56464        35.88589        -1.19246
H         36.37512        36.32745        -1.52684
O         38.05483        31.55305         2.70313
H         38.05205        30.59920         2.93295
O         13.69694        24.44902        -1.59029
H         12.87066        24.11273        -2.00029
O         22.33295        51.68127        -2.28748
H         21.89383        52.32425        -2.90086
O         31.91092        33.82625         2.82491
H         31.77123        32.88028         3.07321
O         16.85402        21.17401        -2.03125
H         17.05195        20.29739        -2.44017
O         26.07039         5.95380         2.05385
H         25.49883         6.59138         2.52855
O         23.78071        16.30152        -2.35140
H         23.08561        15.99946        -2.97244
O         24.37134        41.91706         1.90747
H         24.84088        42.63897         2.39974
H          5.13236        31.22621         1.93582
H          5.03697        33.66455         1.64545
H          7.38552        26.89998         1.51523
H          6.31480        29.09171         1.84782
H          6.18017        35.80740         1.03184
H          7.31874        37.93610         0.59034
H         10.26460        22.81423         2.14356
H          8.30567        24.76347         1.23809
H          8.51564        40.09654         0.23732
H          9.80247        42.38474        -0.48334
H         12.67032        18.32416         1.17673
H         11.19791        20.46314         0.97024
H         11.04827        44.45690        -0.60752
H         12.31378        46.57326        -0.77861
H         14.86505        14.00465        -0.19232
H         13.63280        16.13342         0.24348
H         13.57748        48.77721        -0.68027
H         15.41926        50.34015         1.24939
H         17.31132         9.77485        -0.24891
H         16.11293        11.87632        -0.45588
H         16.03583        52.82300        -0.84295
H         17.29929        54.93242        -0.85714
H         19.88613         5.38476        -0.19444
H         18.60958         7.51331        -0.08437
H         18.45339        56.97758        -0.52806
H         20.32384        59.13746        -0.13223
H         23.36555         2.11613        -0.11760
H         21.19194         3.31870        -0.32719
H         23.31254        62.50829        -1.26651
H         21.28459        61.15234        -0.73886
H         25.47110         3.39502         0.28345
H         26.62020         5.53732         0.11066
H         26.54320        59.58931        -0.50252
H         25.50340        61.37177        -1.44193
H         27.89783         7.65241         0.13016
H         29.13680         9.78356        -0.26188
H         29.12926        55.06367         0.15868
H         27.53365        57.16159         0.84134
H         30.36073        11.94478        -0.43341
H         31.57089        14.07868        -0.47234
H         31.59442        50.75699         0.74549
H         30.41228        52.81107         0.12358
H         32.79157        16.19617        -0.22701
H         34.08573        18.42700        -0.04324
H         34.00223        46.70725         0.17638
H         32.81389        48.66642         0.83222
H         35.27719        20.53055        -0.04651
H         36.51947        22.65733        -0.02888
H         36.62893        42.21848         0.62361
H         35.48540        44.31492         0.08874
H         37.75201        24.78214         0.07886
H         38.99544        26.90122         0.30591
H         39.06402        37.91351         0.67958
H         37.84301        40.07361         0.71801
H         40.24676        29.02922         0.39191
H         41.51823        31.14640         0.69863
H         41.51295        33.60490         0.86477
H         40.28929        35.75687         0.78999
