         424
 CSIRO Nanostructure Databank - Neutral Graphene Oxide Data Set
C          1.51221         1.92745         1.53314
C          1.38207         3.30269         1.34917
C          2.68157         1.22450         1.25648
C          2.52079         4.09981         0.76909
C          1.35879         6.30359         1.30954
C          1.35302         7.68309         1.34889
C          2.55934         5.58572         1.09622
C          2.55433         8.43023         1.21850
C          1.33833        10.55801         0.75378
C          1.33788        11.93316         0.63284
C          2.51534         9.85454         1.10521
C          2.53438        12.69580         0.79533
C          1.30947        14.90829         1.30682
C          1.36140        16.25954         1.46896
C          2.43822        14.18777         0.70477
C          2.59569        17.00109         1.32707
C          2.64412        18.42686         1.63165
C          3.86893         1.93774         0.66637
C          3.83547         3.40248         1.15932
C          5.19694         1.28802         0.95813
C          5.06480         4.19028         0.80464
C          3.76739         6.28634         0.94951
C          3.79913         7.71880         1.08058
C          5.02208         5.56515         0.73920
C          5.02511         8.41996         0.94483
C          3.73325        10.62522         1.33384
C          3.73668        12.06549         1.08410
C          5.09921         9.82809         1.29721
C          5.02609        12.84974         1.29019
C          3.74013        14.95380         0.55216
C          3.77119        16.34075         1.02041
C          5.01264        14.12484         0.41059
C          5.07939        16.99673         1.37299
C          3.79684        19.14345         1.53971
C          5.06571        18.49952         1.22784
C          6.36905         2.00218         0.89156
C          6.38686         3.50931         1.04829
C          7.63498         1.35446         0.80200
C          7.52573         4.18687         0.33152
C          6.24249         6.31230         0.48209
C          6.22526         7.73026         0.51071
C          7.44627         5.62315         0.15561
C          7.40543         8.45372         0.20740
C          6.42546        10.56627         1.16581
C          6.30033        12.07037         0.94375
C          7.29620         9.95133         0.06074
C          7.43819        12.74178         0.57656
C          6.27205        14.92557         0.63186
C          6.28280        16.31866         0.78102
C          7.47957        14.20896         0.52728
C          7.48652        17.03050         0.66205
C          6.20703        19.19003         0.98293
C          7.47120        18.52981         0.49221
C          8.79469         2.06877         0.44090
C          8.68759         3.48605         0.10779
C         10.03821         1.42748         0.31199
C          9.84600         4.14177        -0.52576
C          8.59724         6.36207        -0.21030
C          8.59578         7.77939        -0.13939
C          9.79742         5.66524        -0.69510
C          9.81762         8.51179        -0.43580
C          8.63606        10.64748         0.00057
C          8.67545        12.02042         0.25754
C          9.82096         9.93671        -0.33492
C          9.90026        12.74179         0.10927
C          8.69434        14.90922         0.50591
C          8.70665        16.32490         0.53679
C          9.98604        14.15455         0.61806
C          9.96661        17.04249         0.56221
C          8.75666        19.16479         0.93855
C          9.96447        18.47208         0.80628
C         11.22504         2.12279        -0.06330
C         11.16613         3.50827        -0.43968
C         12.45974         1.45612        -0.10110
C         12.33465         4.23992        -0.72677
C         11.06930         6.40073        -0.82452
C         11.01060         7.81542        -0.77418
C         12.29702         5.68008        -0.95082
C         12.20285         8.59626        -1.13595
C         11.04196        10.67979        -0.51664
C         11.04338        12.10080        -0.33916
C         12.24818        10.02292        -0.82634
C         12.22321        12.88913        -0.85633
C         11.18742        14.93061         0.13851
C         11.18208        16.35431         0.37608
C         12.33041        14.28643        -0.28813
C         12.42082        17.06312         0.34265
C         11.21855        19.14352         0.89619
C         12.43290        18.47749         0.63697
C         13.64711         2.14632        -0.44056
C         13.59620         3.56038        -0.70789
C         14.88252         1.46767        -0.48438
C         14.80875         4.26456        -0.93717
C         13.53020         6.37090        -1.11915
C         13.53887         7.82147        -1.34148
C         14.78031         5.69559        -1.09660
C         14.79438         8.55170        -1.16917
C         13.49818        10.74974        -0.87781
C         13.51883        12.11968        -0.83172
C         14.78031         9.97626        -0.67627
C         14.76278        12.90617        -1.17730
C         13.59610        14.98031        -0.31370
C         13.62252        16.37457         0.05534
C         14.79638        14.30431        -0.59447
C         14.86511        17.07428         0.07927
C         13.66929        19.16391         0.63670
C         14.88121        18.49233         0.36397
C         16.08214         2.14750        -0.78178
C         16.04571         3.57055        -0.99385
C         17.31270         1.45341        -0.86029
C         17.26117         4.27026        -1.28344
C         16.00444         6.41342        -1.24578
C         15.99993         7.85514        -1.18793
C         17.24392         5.71991        -1.38592
C         17.25747         8.57856        -1.18256
C         16.03890        10.74236        -0.99390
C         16.04514        12.13239        -0.98857
C         17.26083        10.00602        -1.09005
C         17.28189        12.85397        -0.93194
C         16.04925        14.97693        -0.49065
C         16.07313        16.38129        -0.16310
C         17.27501        14.27548        -0.68098
C         17.31685        17.08594        -0.10532
C         16.10824        19.18757         0.34092
C         17.32791        18.51521         0.10291
C         18.51164         2.12833        -1.16622
C         18.46328         3.55116        -1.37399
C         19.73346         1.42222        -1.31704
C         19.68470         4.23553        -1.81025
C         18.44207         6.45389        -1.55929
C         18.46648         7.87119        -1.39862
C         19.66829         5.73869        -1.96196
C         19.72061         8.59664        -1.45377
C         18.49757        10.71943        -1.16455
C         18.50035        12.14794        -1.02492
C         19.71077        10.00507        -1.31360
C         19.76184        12.84068        -0.83175
C         18.52568        14.95346        -0.48586
C         18.53661        16.38905        -0.24510
C         19.73085        14.24399        -0.52605
C         19.76377        17.11023        -0.22319
C         18.55085        19.22094         0.04917
C         19.77245        18.54488        -0.14456
C         20.96865         2.07090        -1.59837
C         20.98131         3.52860        -1.69750
C         22.16714         1.37815        -1.69673
C         22.16227         4.23340        -1.61232
C         21.01507         6.46748        -2.05083
C         20.95821         7.90533        -1.58661
C         22.11266         5.71048        -1.27281
C         22.19844         8.57331        -1.40196
C         20.98517        10.77543        -1.53808
C         20.96143        12.13845        -0.90641
C         22.23070         9.97743        -1.24832
C         22.24340        12.73554        -0.39034
C         21.00013        14.93506        -0.08657
C         21.00196        16.41682        -0.35283
C         22.25952        14.23625        -0.52527
C         22.18500        17.11378        -0.52145
C         21.01442        19.23754        -0.22317
C         22.21512        18.54923        -0.42818
C         23.44253         2.07964        -2.05160
C         23.42941         3.55235        -1.68073
C         24.65236         1.38992        -1.48839
C         24.62391         4.24075        -1.59269
C         23.44334         6.41459        -1.41155
C         23.44456         7.82403        -1.38738
C         24.65100         5.68299        -1.46781
C         24.68847         8.52631        -1.34829
C         23.46399        10.66697        -1.13375
C         23.48029        12.07156        -0.92718
C         24.70332         9.94613        -1.24037
C         24.68631        12.80096        -1.01604
C         23.42472        14.91572        -0.75561
C         23.44884        16.41689        -0.94891
C         24.68006        14.21869        -0.91384
C         24.68833        17.03805        -0.30446
C         23.48653        19.22694        -0.47598
C         24.69989        18.54649        -0.47424
C         25.85169         2.05656        -1.39548
C         25.91301         3.49460        -1.87974
C         27.05639         1.39606        -1.03133
C         27.14829         4.22832        -1.41882
C         25.90480         6.37293        -1.44935
C         25.91596         7.79463        -1.37741
C         27.14395         5.64445        -1.38569
C         27.15592         8.50214        -1.29316
C         25.93935        10.65217        -1.20441
C         25.93601        12.09967        -1.19634
C         27.14860         9.91512        -1.20021
C         27.12038        12.83445        -1.34134
C         25.90316        14.97302        -1.03043
C         25.92277        16.34814        -0.82984
C         27.14534        14.26267        -1.29923
C         27.11716        17.14738        -1.26489
C         25.94989        19.21671        -0.47337
C         27.17033        18.54310        -0.68423
C         28.29863         2.06738        -1.00282
C         28.32593         3.51151        -1.15437
C         29.49722         1.37833        -0.72763
C         29.57146         4.20263        -0.98804
C         28.38060         6.35276        -1.21543
C         28.39224         7.77757        -1.21576
C         29.60093         5.63512        -1.05929
C         29.64064         8.46417        -1.08945
C         28.42397        10.62982        -1.08598
C         28.40544        12.11442        -1.25580
C         29.70417         9.90218        -1.21178
C         29.63399        12.78246        -1.76301
C         28.36689        14.97183        -1.30792
C         28.41231        16.38187        -1.15501
C         29.63258        14.27546        -1.62503
C         29.63334        17.05905        -1.03855
C         28.41143        19.17618        -0.57455
C         29.64652        18.48666        -0.77654
C         30.74188         2.05044        -0.63231
C         30.76574         3.47175        -0.80964
C         31.91470         1.35286        -0.22117
C         32.04455         4.18672        -0.80592
C         30.83169         6.34308        -0.86035
C         30.83262         7.76164        -0.88069
C         32.05606         5.64231        -0.67005
C         32.04331         8.54175        -0.44460
C         30.91146        10.58266        -1.30731
C         30.93671        11.98972        -1.86786
C         32.16781         9.91747        -1.06203
C         32.13417        12.77142        -1.39595
C         30.90969        14.96015        -1.36938
C         30.89033        16.33611        -1.08108
C         32.12086        14.19888        -1.29421
C         32.12198        17.03107        -0.84264
C         30.87137        19.15732        -0.66027
C         32.11917        18.47087        -0.70774
C         33.12839         2.00300         0.05867
C         33.30526         3.40959        -0.34830
C         34.19475         1.37562         0.73185
C         34.40867         4.19277         0.20968
C         33.27462         6.33110        -0.39490
C         33.31540         7.75253        -0.43666
C         34.43852         5.60401         0.04759
C         34.50764         8.46776        -0.22602
C         33.39997        10.59059        -1.07643
C         33.34278        12.05133        -1.32439
C         34.59769         9.88986        -0.54211
C         34.50585        12.85962        -1.38322
C         33.32617        14.89220        -0.94765
C         33.33231        16.31540        -0.76357
C         34.55924        14.19271        -0.97643
C         34.58988        17.00973        -0.59021
C         33.34263        19.14871        -0.62057
C         34.58460        18.45283        -0.58146
C         35.35407         2.08799         1.12156
C         35.43819         3.51447         0.90549
C         36.42369         1.43226         1.78054
C         36.56057         4.24348         1.39551
C         35.56718         6.34171         0.51948
C         35.62846         7.74921         0.32317
C         36.63154         5.66382         1.20682
C         36.75826         8.46060         0.82612
C         35.83393        10.49436        -0.22139
C         36.24348        11.80007        -0.66774
C         36.83189         9.85805         0.60760
C         37.05260        12.66397         0.00600
C         35.74946        14.81076        -0.23700
C         35.80163        16.31055        -0.43148
C         37.12783        14.12094        -0.43269
C         37.02554        17.00463        -0.24513
C         35.80725        19.13897        -0.47922
C         37.02817        18.44594        -0.30170
C         37.54154         2.13727         2.24075
C         37.61133         3.56088         2.06673
C         38.62679         1.46804         2.90888
C         38.72363         4.28885         2.58308
C         37.71831         6.38983         1.75272
C         37.77751         7.81277         1.57969
C         38.77199         5.71073         2.45800
C         38.83092         8.58060         2.14014
C         37.89283        10.61015         1.17112
C         37.88041        12.08882         1.07357
C         38.90068         9.96727         1.92343
C         39.11076        12.87610         1.47029
C         38.22046        14.88771         0.28489
C         38.23124        16.31431         0.11479
C         39.26410        14.25340         0.94285
C         39.40606        17.04376         0.43162
C         38.24369        19.14389        -0.11337
C         39.42411        18.47010         0.24986
C         39.69608         2.16647         3.39347
C         39.77106         3.59740         3.26232
C         40.83527         4.33641         3.80868
C         39.84645         6.42987         3.03991
C         39.83730         7.94426         3.08122
C         40.85604         5.72952         3.71215
C         41.19155         8.57785         2.82809
C         40.03811        10.76018         2.57201
C         40.28022        12.13929         1.96751
C         41.27938         9.89587         2.61488
C         41.46098        12.83104         2.07807
C         40.49980        14.94632         1.22217
C         40.58020        16.37148         0.91122
C         41.56513        14.21465         1.73784
C         41.74500        17.11809         1.12085
C         40.63973        19.18026         0.47676
C         41.77374        18.50762         0.88710
O         35.66389        12.24287        -1.86624
O         29.45585        13.59024        -2.95877
O         28.54866        11.54626         0.09974
O         33.03448         3.66359        -1.75788
O          4.45579        10.19931         2.55609
O          2.83731        14.75008        -0.59614
O         19.47683         4.88610        -3.14557
O         12.72564         8.28008        -2.47567
O          9.54206         4.75464        -1.82230
O         37.92393        12.76574         2.37979
O          6.63835         3.71593         2.48782
H          5.83675         3.37120         2.95050
O         21.03868        11.02156        -3.00599
H         21.01891        10.14381        -3.44588
O         11.92347        13.11510        -2.29899
H         11.74761        12.23461        -2.69727
O         31.17828        11.77077        -3.29453
H         30.82111        12.56544        -3.75937
O         39.43582         8.29218         4.43849
H         39.44827         9.28204         4.50152
O         26.90799        17.34683        -2.71664
H         25.94745        17.50567        -2.85324
O          2.37943         4.08015        -0.69629
H          1.50727         4.47211        -0.91223
O         21.72301         5.78867         0.13260
H         22.43196         5.37379         0.66731
O         20.98454        14.82859         1.38348
H         21.21595        13.88877         1.59537
O          5.09338        13.65182        -0.95534
H          4.24299        13.89546        -1.39542
O          5.23657        16.76465         2.82380
H          4.49047        17.21854         3.27109
O          6.58947        10.20001        -1.18877
H          7.14737         9.87526        -1.92603
O         22.25629        12.43695         1.07845
H         23.14293        12.69449         1.41359
O         14.66830        13.11579        -2.63372
H         13.74250        13.41731        -2.81280
O         23.60522        16.66447        -2.37983
H         22.82658        16.28927        -2.84236
O         26.02026         3.43412        -3.33718
H         25.24036         2.91065        -3.65670
O         35.42441        14.59327         1.16747
H         34.62736        15.12187         1.38252
O         14.82088         9.80186         0.80060
H         15.69623         9.41938         1.02684
O          7.12683        10.35579         2.41443
H          6.47552        10.47697         3.13940
O          3.85820         3.31433         2.62034
H          3.66726         4.21079         2.97135
O         39.61409        11.02860         3.95097
H         38.84241        11.64118         3.87793
O         37.49435        14.19872        -1.82787
H         36.90397        13.58180        -2.32212
O         24.60565        16.76982         1.12295
H         25.32607        17.26349         1.56704
O          3.76018         1.84868        -0.78241
H          3.10558         2.52631        -1.08174
O         31.79199         8.81925         0.99874
H         30.96199         9.34212         1.05072
O          5.07512        13.23101         2.68470
H          5.02545        12.40631         3.21534
O         10.22431        13.99816         2.06798
H         10.13088        14.88498         2.47701
O         23.58649         2.03852        -3.53685
H         22.78131         2.45414        -3.91457
O          7.44817        18.75581        -0.97722
H          8.25071        18.32847        -1.34698
O         21.40953         6.52292        -3.44029
H         20.85846         5.85487        -3.91608
H          0.64239         1.37250         1.91870
H          0.41156         3.77957         1.54653
H          2.70811         0.13183         1.37667
H          0.40937         5.76253         1.42454
H          0.40091         8.20834         1.50337
H          0.40583        10.00532         0.57523
H          0.40754        12.45601         0.37313
H          0.41609        14.34510         1.61365
H          0.48438        16.79610         1.86116
H          1.69684        18.93543         1.86448
H          5.23966         0.18631         0.94588
H          3.78076        20.23654         1.66633
H          7.68778         0.25858         0.89445
H          6.18595        20.29215         0.98063
H         10.11251         0.35522         0.54690
H          8.77909        20.25346         1.10150
H         12.50838         0.38522         0.14424
H         11.23144        20.22286         1.10917
H         14.90946         0.38628        -0.28532
H         13.68791        20.24305         0.85017
H         17.32653         0.36415        -0.70925
H         16.11672        20.27309         0.51998
H         19.72916         0.32922        -1.19442
H         18.54580        20.31567         0.15863
H         22.17503         0.28232        -1.60122
H         21.02353        20.33255        -0.11537
H         24.58454         0.32445        -1.21956
H         23.48954        20.32800        -0.50313
H         27.02309         0.32000        -0.80066
H         25.96352        20.30981        -0.33207
H         29.46430         0.28994        -0.56975
H         28.44893        20.23106        -0.26023
H         31.82482         0.28106         0.01245
H         30.87337        20.24537        -0.49501
H         34.11258         0.30913         0.99029
H         33.34827        20.24751        -0.56122
H         36.36703         0.34475         1.93807
H         35.81114        20.23930        -0.47911
H         38.57573         0.37578         3.02813
H         38.25452        20.24020        -0.20594
H         40.51480         1.64236         3.90824
H         41.64039         3.81217         4.34366
H         41.67297         6.28632         4.19263
H         42.10105         7.95831         2.85846
H         42.26315        10.36293         2.45979
H         42.35773        12.34280         2.48550
H         42.53362        14.70294         1.91229
H         42.65938        16.62863         1.48334
H         40.66064        20.26902         0.32503
H         42.70834        19.05993         1.05897
