         257
 CSIRO Nanostructure Databank - Neutral Graphene Oxide Data Set
C        -11.43724         0.52789        -0.20919
C        -10.27069         1.29958         0.30688
C         -8.98573         0.54996         0.45765
C         -7.74326         1.35839         0.69494
C         -6.47490         0.63590         0.92716
C         -5.19008         1.27847         0.48251
C         -3.95647         0.69981         1.11660
C         -2.66404         1.45105         1.01622
C         -1.37400         0.68273         1.21445
C         -0.08060         1.42368         0.97509
C          1.09072         0.66758         0.39997
C          2.32479         1.40077        -0.03486
C          3.63679         0.65357        -0.08221
C          4.82161         1.33926        -0.69663
C          6.14774         0.58240        -0.87109
C          7.42712         1.36553        -0.75401
C          8.75191         0.66695        -0.63042
C          9.90630         1.48785        -0.10306
C         10.87999         0.79090         0.76482
C        -10.19207         2.77621         0.28648
C         -8.96775         3.46830         0.20320
C         -7.73841         2.75738         0.25244
C         -6.50381         3.37772        -0.23761
C         -5.19681         2.63214        -0.15349
C         -3.87107         3.36181        -0.36180
C         -2.60966         2.71592         0.17769
C         -1.31875         3.51793         0.21281
C         -0.10458         2.91039         0.84798
C          1.20017         3.64103         0.63740
C          2.42652         2.87693         0.28216
C          3.58276         3.65505        -0.26398
C          4.83647         2.85324        -0.52511
C          6.05795         3.33527         0.18840
C          7.41347         2.67988         0.03305
C          8.58103         3.62643        -0.26580
C          9.79981         2.97511        -0.09956
C         -8.89836         4.92862         0.13320
C         -7.73392         5.61692        -0.05065
C         -6.50179         4.88117        -0.43192
C         -5.19215         5.62373        -0.56140
C         -3.87852         4.85465        -0.69201
C         -2.58146         5.63550        -0.60873
C         -1.28319         4.93964        -0.26848
C         -0.04943         5.79978        -0.07499
C          1.16021         5.15770         0.56576
C          2.44925         5.91458         0.46057
C          3.61944         5.15446        -0.12561
C          4.91427         5.90541        -0.26911
C          6.06052         5.35813        -1.11854
C          7.40255         5.90035        -0.67971
C          8.52401         5.04416        -0.43050
C         -7.69442         7.14168        -0.01499
C         -6.35414         7.67360         0.54711
C         -5.16576         7.07239        -0.19143
C         -3.86252         7.80188        -0.03710
C         -2.58215         7.10806        -0.28016
C         -1.39985         7.96116        -0.79125
C         -0.06083         7.25423        -0.46031
C          1.10780         8.11086        -0.04098
C          2.40134         7.43129         0.28981
C          3.69759         8.19011         0.11020
C          4.95406         7.39630        -0.14502
C          6.10098         7.99564        -0.97543
C          7.40062         7.28452        -0.60140
C         -6.26413         9.18807         0.55622
C         -5.17817         9.89687         0.20951
C         -3.91921         9.28913        -0.37207
C         -2.62185         9.99047        -0.01029
C         -1.42125         9.39859        -0.25227
C         -0.16260        10.15011        -0.34583
C          1.05987         9.55398        -0.39946
C          2.34550        10.32906        -0.66967
C          3.65954         9.62343        -0.31581
C          4.93466        10.20677        -0.84161
C          6.07438         9.50650        -0.98811
C        -11.37615        -0.80042        -0.44853
C        -10.08663        -1.54191        -0.56615
C         -8.83601        -0.78682        -0.22880
C         -7.53108        -1.52921        -0.08916
C         -6.40872        -0.83675         0.61809
C         -5.24302        -1.59200         1.17585
C         -3.96642        -0.79397         1.41033
C         -2.67219        -1.55548         1.49094
C         -1.36069        -0.80528         1.39724
C         -0.13988        -1.57430         0.95682
C          1.07821        -0.84591         0.46052
C          2.40791        -1.57647         0.33261
C          3.70364        -0.80056         0.23839
C          4.93436        -1.60098        -0.16195
C          6.14851        -0.93719        -0.76950
C          7.53289        -1.65541        -1.00328
C          8.77117        -0.84441        -0.52362
C          9.87332        -1.44290         0.31558
C         10.80224        -0.53259         1.02414
C        -10.01224        -3.01708        -0.57218
C         -8.82829        -3.73586        -0.44663
C         -7.48551        -3.03467        -0.39424
C         -6.46383        -3.78168         0.44971
C         -5.21440        -3.07192         0.95606
C         -3.85936        -3.69866         0.62423
C         -2.66536        -3.06658         1.35337
C         -1.34908        -3.79808         1.38304
C         -0.04635        -3.01185         1.41456
C          1.26980        -3.71758         1.30815
C          2.48565        -3.02044         0.71139
C          3.83352        -3.66110         0.96148
C          5.09979        -2.91719         0.56333
C          6.40488        -3.65063         0.43725
C          7.54102        -3.20350        -0.53200
C          8.81408        -3.67259         0.19099
C          9.76842        -2.87143         0.69794
C         -8.78723        -5.15405        -0.56456
C         -7.59788        -5.92591        -0.40709
C         -6.45253        -5.27272         0.30468
C         -5.12252        -5.99120         0.41272
C         -3.85658        -5.23751         0.70375
C         -2.50613        -5.80544         0.27862
C         -1.30999        -5.30436         1.08439
C          0.01337        -6.04159         1.28153
C          1.25378        -5.20329         1.04767
C          2.53819        -5.89237         0.70909
C          3.84189        -5.16443         0.94576
C          5.13319        -5.89933         0.68104
C          6.42815        -5.15889         0.57728
C          7.62522        -5.89623         0.06014
C          8.94496        -5.18308         0.27836
C         -7.54278        -7.27190        -0.73792
C         -6.29022        -8.04738        -0.70206
C         -5.03741        -7.34320        -0.26568
C         -3.77756        -7.69559        -1.01422
C         -2.50117        -6.98414        -0.67253
C         -1.24477        -7.68275        -1.05218
C          0.12308        -7.51651         1.00069
C          1.33727        -8.26800         0.56530
C          2.58426        -7.38862         0.70255
C          3.84634        -8.06087         0.32387
C          5.04786        -7.23756         0.01264
C          6.29482        -7.96499        -0.37062
C          7.57816        -7.22052        -0.23915
C         -6.14706        -9.27736        -1.53191
C         -4.94965        -9.82044        -1.82691
C         -3.68490        -9.04514        -1.69048
C         -2.37156        -9.73117        -1.73539
C         -1.19477        -9.08465        -1.40919
C          0.12353        -9.72344        -1.29399
C          1.21572        -9.23151        -0.63523
C          2.32696       -10.04458         0.00710
C          3.70556        -9.40946        -0.37349
C          5.03147       -10.13386        -0.21540
C          6.19803        -9.45431        -0.29627
O          6.82248         1.17082        -2.03467
O          3.95510         0.17122         1.28619
O         -3.39234        -1.14151         2.68641
O          1.69609        -5.38182        -0.35091
O         -0.93830        -5.91068         2.37317
O         -5.38329         6.67481        -1.56842
O          9.78728         1.13022        -1.54152
O          0.79740        -3.24689         2.58649
O         -0.03852         2.31070         2.16044
O         -6.70639         3.98831        -1.56656
O          2.15895         3.19694         1.66027
O          5.41894        -7.31193        -1.39548
O          0.09094        -1.40796        -0.46870
O         -0.16372        -7.03975        -0.91327
O          1.55055         7.98818         1.34322
O         -6.44823        -0.90394        -0.84651
O          4.68636         2.22404        -1.82217
O          6.12978        -2.85728         1.61287
O         -2.39855        -5.58756        -1.15127
O         -3.48403         1.54173         2.21346
O         -6.97336        -4.62978         1.51234
O          1.32259         1.07194        -1.01119
O         -4.53361        -5.93135         1.76029
O         -0.94159         3.85274        -1.16385
O         -5.61715        -8.35158         0.61037
O          3.86634        -4.40940         2.19506
O         -7.16331         1.13779         2.07831
O         -3.02313         7.40088         1.09610
O          5.39112         6.55588         0.94777
O          0.34568         6.26903        -1.42952
O          1.76617        -9.52391         1.29160
O          3.83831         9.26535         1.09100
O         -3.02385         2.54176        -1.20244
O         -7.00477        -3.04737        -1.82724
O         -2.19481        -3.66387         2.57335
O          5.13158        -1.59579        -1.59403
O          9.98067        -1.34216        -1.15043
O          5.92551         4.65033        -2.09370
O         -9.26946        -0.84515        -1.61547
O         -5.47172        -2.52078         2.27004
O          2.33520        -2.62616        -0.67639
O          7.68244         2.20100         1.39058
O          3.47400        -7.94519         1.72288
O         -3.85453        -7.78514        -2.46939
O         -1.20957         0.06046         2.53696
O         -3.14157         5.23504        -1.87992
O         -9.86754         0.62297         1.60614
O          6.02013        -5.78285         1.83798
O          1.84572         5.63278         1.75797
O          7.38431        -4.01788        -1.64826
O          3.22607         4.51495        -1.38319
O         -1.57091         8.16070        -2.16492
O         -5.20047         1.40715        -0.96153
O          9.46322        -5.57057         1.55915
H          8.76419        -5.42610         2.23099
O          5.88535         4.01557         1.19706
H          7.34023         2.89152         2.00789
O         -4.02123         9.38328        -1.81386
H         -3.19453         8.96143        -2.19282
O         -6.29926         7.21271         1.92499
H         -5.51546         7.61768         2.35464
O          2.41925        10.61217        -2.07402
H          1.52144        10.81854        -2.40658
O          5.78667         7.58905        -2.34099
H          6.44708         7.97905        -2.95125
O          7.66239        -1.68099        -2.41472
H          7.53555        -2.63495        -2.67830
O         -6.04254        -4.13523        -2.02627
H         -5.97176        -4.12866        -3.01370
O         -8.76013         7.64861         0.77881
H         -8.50221         7.52272         1.71747
O          3.53446        -9.14834        -1.78890
H          4.27843        -8.55891        -2.07835
O         -0.87598        -8.23161         1.48411
H         -1.44716        -7.63199         2.03932
O         -3.62774        -3.34656        -0.75808
H         -4.42159        -3.58282        -1.30599
H         11.48984        -0.98194         1.75672
H         11.60114         1.41253         1.31678
H         10.74111         3.54766        -0.15002
H          9.50458         5.55022        -0.37405
H          8.28916         7.85084        -0.27935
H          6.98942        10.02620        -1.31451
H          4.94841        11.29640        -0.99983
H          2.30155        11.30554        -0.09998
H         -0.24088        11.24505        -0.45629
H         -2.66239        11.05427         0.27537
H         -5.21807        10.99617         0.27397
H         -7.15517         9.71447         0.93422
H         -7.82769         7.52169        -1.06014
H         -9.82133         5.49617         0.32654
H        -11.13039         3.34679         0.21209
H        -12.40795         1.04476        -0.25399
H        -12.29405        -1.34635        -0.71511
H        -10.95778        -3.57505        -0.65361
H         -9.71248        -5.68028        -0.84392
H         -8.41933        -7.74252        -1.20772
H         -7.06986        -9.82898        -1.76692
H         -4.89295       -10.79632        -2.33173
H         -2.36675       -10.80977        -1.95408
H          0.23763       -10.70370        -1.78532
H          2.28641       -11.15519        -0.05101
H          5.04477       -11.23188        -0.13797
H          7.14673       -10.01013        -0.23648
H          8.50834        -7.75866        -0.47710
H          9.68739        -5.52059        -0.48948
H         10.61585        -3.32578         1.23730
