         490
 CSIRO Nanostructure Databank - Neutral Graphene Oxide Data Set
C         38.22639        51.04092        -4.63672
C         37.01004        51.51520        -4.14383
C         38.19399        53.02049        -2.66103
C         36.99618        52.49913        -3.14996
C         41.84095        49.13527        -4.32170
C         41.54012        50.43968        -3.88330
C         39.42586        51.54496        -4.11609
C         40.68615        53.17222        -2.65231
C         39.43633        52.55437        -3.13528
C         40.70372        54.52073        -2.45240
C         43.44213        48.89639        -2.52599
C         42.73430        48.35010        -3.60237
C         43.23776        50.25179        -2.15201
C         42.19536        51.01635        -2.78461
C         43.05786        53.12013        -1.76828
C         41.80351        52.31434        -2.08604
C         42.93818        54.57046        -1.45890
C         41.80205        55.21715        -1.82506
C         46.23861        46.39243        -1.99539
C         45.25659        47.16835        -2.59077
C         45.24773        48.72905        -0.77929
C         44.34030        47.99023        -1.72226
C         45.22102        50.12728        -0.62834
C         44.15288        50.86500        -1.21504
C         44.98241        53.03534        -0.07345
C         44.19350        52.33882        -1.17751
C         45.34257        54.46133        -0.54319
C         44.04654        55.30594        -0.71935
C         45.53830        57.24342        -0.85886
C         44.43290        56.63636        -1.32771
C         47.73979        44.37248        -0.46984
C         47.52959        45.73425         0.13737
C         46.56249        46.58628        -0.64448
C         47.47870        48.65869         0.50966
C         46.25947        47.91429        -0.11530
C         47.47301        50.13707         0.46649
C         46.32092        50.80757         0.06110
C         47.39604        52.98261         0.96709
C         46.19340        52.24106         0.40649
C         47.39243        54.51667         1.15103
C         46.34174        55.22722         0.30558
C         47.59343        57.32623         0.59494
C         46.44321        56.57506         0.08548
C         47.62046        58.71724         0.63821
C         50.23281        44.48136        -0.30263
C         48.93199        43.78489        -0.59381
C         50.05193        45.85967         0.29527
C         48.82011        46.52948         0.30895
C         49.94069        48.63119         0.91187
C         48.76418        47.91793         0.57716
C         49.92390        50.09359         1.08716
C         48.68136        50.84904         0.87271
C         49.89536        52.99222         1.34224
C         48.66934        52.23376         1.01295
C         49.94214        54.45503         1.06798
C         48.75182        55.17053         0.96159
C         50.01607        57.29245         1.05910
C         48.78744        56.59498         0.87817
C         50.01855        58.71797         1.08108
C         48.82000        59.40164         0.90036
C         52.32529        41.47586         0.78284
C         51.22303        42.21975         0.47351
C         52.34036        44.31110         1.02772
C         51.25264        43.66474         0.48945
C         52.43665        45.76617         1.00077
C         51.20525        46.53477         0.74014
C         52.36459        48.50499         1.71211
C         51.13604        47.89989         1.07449
C         52.34796        50.02503         1.72411
C         51.10132        50.74889         1.39029
C         52.47731        52.90660         1.27006
C         51.17552        52.22340         1.51750
C         52.47738        54.36885         0.83352
C         51.19425        55.13216         1.07944
C         52.47627        57.23222         1.41401
C         51.23379        56.53676         1.15170
C         52.49731        58.63192         1.59339
C         51.33424        59.47074         1.10724
C         52.35433        61.39451         2.35449
C         51.28501        60.81853         1.79141
C         54.85713        39.97404         0.88277
C         54.77031        41.40017         1.14889
C         53.57385        42.08817         1.17751
C         54.78189        44.29260         1.43090
C         53.48490        43.52959         1.65865
C         54.80728        45.75309         1.86247
C         53.60411        46.43864         1.25626
C         54.90045        48.62403         1.30004
C         53.60159        47.92412         0.99779
C         54.90935        49.97131         1.43866
C         53.65893        50.75846         1.65046
C         54.96483        52.87690         1.15735
C         53.64554        52.20150         1.28238
C         54.97883        54.39421         1.29012
C         53.69935        55.10059         1.33708
C         54.91589        57.16487         1.89294
C         53.68513        56.47156         1.59326
C         54.89962        58.56948         2.09720
C         53.67012        59.27834         2.02510
C         54.92071        61.44616         2.30228
C         53.65100        60.67118         2.61357
C         54.95169        62.83177         2.25475
C         57.24103        40.16611         0.17197
C         56.01190        39.36993         0.53172
C         57.33747        41.44711         0.98755
C         56.06971        42.06025         1.56335
C         57.30867        44.27268         1.64467
C         56.06746        43.55119         1.32912
C         57.30661        45.68124         1.58116
C         56.12540        46.40932         1.50867
C         57.40048        48.52959         1.66648
C         56.18475        47.84996         1.05025
C         57.27162        49.95310         2.14368
C         56.23427        50.68584         1.30015
C         57.34281        52.84294         1.88194
C         56.17705        52.16517         1.57314
C         57.36881        54.28860         2.01454
C         56.18892        55.03281         1.81678
C         57.34306        57.16784         2.22931
C         56.14438        56.45422         2.02135
C         57.36299        58.57573         2.20930
C         56.13666        59.29450         2.22334
C         57.39837        61.42500         2.13083
C         56.14821        60.72139         2.22212
C         57.38909        62.85985         2.03274
C         56.16842        63.52679         2.09841
C         59.85868        37.33138         0.09768
C         58.62189        38.03246         0.21619
C         59.80202        40.22505         0.03796
C         58.54821        39.39453         0.19520
C         59.84842        41.36224         1.07607
C         58.51555        42.09095         1.19424
C         59.85761        44.21761         1.76039
C         58.53849        43.47429         1.75285
C         59.86627        45.69182         1.74173
C         58.62443        46.42191         1.27867
C         59.82982        48.51294         2.11000
C         58.57887        47.85587         1.75453
C         59.79441        49.95875         2.29294
C         58.58747        50.68668         2.17163
C         59.75935        52.81711         2.45052
C         58.56695        52.10190         2.16139
C         59.82877        54.27225         2.34788
C         58.61101        54.95673         2.26706
C         59.73257        57.09391         1.62430
C         58.64561        56.45329         2.46766
C         59.82329        58.58099         1.87873
C         58.62340        59.29453         2.12460
C         59.94170        61.43099         2.16476
C         58.61859        60.70886         2.10579
C         59.86650        62.86630         1.70506
C         58.64853        63.57108         1.78217
C         59.84666        65.63622         1.28335
C         58.66312        64.96472         1.54889
C         62.37456        35.90463        -0.38556
C         62.33374        37.29487        -0.16661
C         61.07415        37.99840         0.00633
C         62.29229        40.12817         0.16467
C         61.09638        39.43943         0.08356
C         62.29181        41.64261         0.19753
C         61.06591        42.23761         0.86850
C         62.31441        44.29888         1.42654
C         61.08652        43.54023         1.29363
C         62.33723        45.64199         1.81847
C         61.06317        46.37230         1.91171
C         62.28900        48.47558         2.59416
C         61.02674        47.80290         2.17831
C         62.29672        49.97577         2.72458
C         60.97794        50.66126         2.61979
C         62.61697        53.10073         2.43449
C         60.84691        52.02963         2.88436
C         62.33886        54.31363         1.85830
C         61.08064        55.01794         2.10161
C         62.19586        57.06626         1.24344
C         61.04162        56.36237         1.74364
C         62.17084        58.45643         1.11798
C         61.02720        59.24597         1.51979
C         62.28388        61.37009         1.20565
C         61.08894        60.66149         1.54624
C         62.29626        62.78633         1.22067
C         61.07560        63.53910         1.37500
C         62.30949        65.66568         0.86330
C         61.07377        64.95203         1.18491
C         62.34148        67.06762         0.74286
C         64.79545        35.94204        -0.67049
C         63.57189        35.24621        -0.63565
C         64.79854        37.34408        -0.37953
C         63.55942        38.02439        -0.14811
C         64.78193        40.14173         0.17244
C         63.55371        39.43516         0.07663
C         64.78519        41.53731         0.57038
C         63.57975        42.20389         0.74806
C         64.88631        44.26163         1.55121
C         63.55216        43.51196         1.38837
C         64.82760        45.72537         1.66412
C         63.59850        46.34847         1.89360
C         64.82600        48.57616         2.02653
C         63.60392        47.77229         2.31358
C         64.80016        49.95232         2.00961
C         63.58116        50.71654         2.37296
C         64.70398        52.75793         1.22619
C         63.44843        52.08221         1.70944
C         64.52861        54.10184         0.72480
C         63.38022        54.87312         0.99796
C         64.51797        56.96802         0.40329
C         63.36895        56.30024         0.80963
C         64.65617        58.44014         0.71937
C         63.33173        59.15630         0.45174
C         64.61724        61.26649         0.35920
C         63.44673        60.63833         0.75081
C         64.79502        62.72167         0.53982
C         63.55114        63.51637         0.99983
C         64.70539        65.60974         0.26639
C         63.52003        64.95180         0.69022
C         64.69705        67.01877         0.13171
C         63.52524        67.72641         0.42659
C         67.23043        33.17658        -1.43085
C         66.07362        33.85964        -1.34023
C         67.21766        36.01119        -1.06326
C         66.03639        35.28756        -1.02377
C         67.26256        37.39286        -0.65944
C         66.02396        38.06454        -0.32543
C         67.25427        40.17105         0.11257
C         66.01920        39.45533        -0.00255
C         67.27299        41.54270         0.40507
C         66.04973        42.23770         0.71356
C         67.30980        44.35475         1.02690
C         66.09291        43.60029         1.05372
C         67.31480        45.74407         1.34125
C         66.07471        46.45759         1.60216
C         67.27740        48.61504         1.59572
C         66.05947        47.86049         1.74162
C         67.28426        50.00005         1.50886
C         66.06857        50.78506         1.92588
C         67.08584        52.74727         0.63077
C         65.91696        52.10405         1.19427
C         66.96344        54.00573         0.06257
C         65.67391        54.69754         0.03927
C         67.01621        56.92719        -0.03032
C         65.66595        56.24456        -0.10858
C         66.95053        58.37973        -0.44494
C         65.77629        59.13269        -0.03150
C         66.98085        61.22889        -0.59973
C         65.72892        60.49796        -0.17101
C         66.71563        62.64997        -1.14074
C         65.84148        63.45429        -0.19337
C         66.97961        65.54969        -0.80559
C         65.85646        64.83721        -0.20116
C         67.01775        66.92405        -0.88851
C         65.96094        67.77354        -0.21180
C         66.73293        69.65537        -1.63517
C         65.72000        69.05010        -0.98344
C         69.75601        31.87345        -2.27390
C         69.74938        33.21972        -1.88893
C         68.55668        33.86534        -1.19626
C         69.73573        36.06896        -1.35060
C         68.44878        35.33504        -1.62502
C         69.72515        37.41965        -0.93326
C         68.48425        38.06748        -0.57401
C         69.75412        40.21886        -0.21601
C         68.54578        39.39170         0.14332
C         69.73144        41.62631         0.02127
C         68.51676        42.28458         0.40094
C         69.76141        44.40471         0.67618
C         68.52651        43.67312         0.69313
C         69.77550        45.76940         1.12774
C         68.57352        46.42988         1.42785
C         69.84161        48.69261         1.63477
C         68.55641        47.88087         1.71876
C         69.74341        50.07365         1.10931
C         68.47490        50.73137         1.12169
C         69.52002        52.70784         0.07199
C         68.36951        52.05482         0.62470
C         69.42154        54.00294        -0.51486
C         68.07210        54.62295        -0.74711
C         69.19885        56.77130        -1.25213
C         68.12648        56.14253        -0.68514
C         69.05426        58.17650        -1.79664
C         67.97230        58.97617        -1.12172
C         69.15354        61.10542        -1.82909
C         67.82941        60.40944        -1.58283
C         69.14549        62.55745        -1.85337
C         68.05544        63.29910        -1.43793
C         69.39363        65.48743        -1.65880
C         68.17324        64.75204        -1.18649
C         69.33067        66.95295        -1.84987
C         68.13893        67.64135        -1.48963
C         69.15893        69.73496        -2.30688
C         68.03275        69.01983        -1.78101
C         69.10372        71.13948        -2.53622
C         72.03361        32.06878        -3.06016
C         70.88726        31.29884        -2.85932
C         72.05060        33.40471        -2.66186
C         70.92228        33.99434        -2.06377
C         72.15679        36.09648        -1.44252
C         70.94687        35.39995        -1.62185
C         72.15499        37.44405        -1.08908
C         70.95492        38.13499        -0.85805
C         72.10059        40.36415        -0.83119
C         70.93480        39.58051        -0.61132
C         72.10014        41.71865        -0.59517
C         70.92981        42.38673        -0.13912
C         72.16734        44.53611         0.13502
C         70.94473        43.77445         0.21281
C         72.25001        45.79275         0.62952
C         71.09012        46.44217         1.25188
C         72.29865        48.74420         1.03691
C         71.14107        47.96110         1.48909
C         72.16627        50.02611         0.62699
C         70.88822        50.71454         0.60393
C         71.91619        52.73742        -0.44262
C         70.78936        52.04913         0.08526
C         71.80811        54.01206        -0.95170
C         70.54934        54.67077        -1.01416
C         71.51738        56.76098        -1.98977
C         70.43451        56.04696        -1.50947
C         71.48741        58.17656        -2.16832
C         70.35060        58.92935        -1.97046
C         71.54371        61.09566        -2.39720
C         70.31968        60.38080        -2.05971
C         71.55968        62.42772        -2.61141
C         70.34344        63.23750        -2.43572
C         71.67548        65.50633        -2.68211
C         70.42919        64.74170        -2.44391
C         71.65394        66.85858        -2.66179
C         70.44584        67.62286        -2.37390
C         71.48936        69.78335        -3.08042
C         70.38251        69.04305        -2.58072
C         71.40072        71.14417        -3.29444
C         70.19762        71.82861        -3.01794
O         69.23592        48.39846         2.92607
O         64.63247        63.14779         1.92992
O         65.40566        55.38525        -1.25147
O         58.72432        46.42818        -0.12334
O         69.95000        64.03530        -3.63587
O         55.17010        53.70414        -0.04851
O         46.38240        52.38838         1.86688
O         71.40361        47.02921         2.56708
O         59.30062        43.63648         3.00843
O         55.36006        44.03398         0.12801
O         50.43292        52.71258         2.69497
O         46.40867        48.11543         1.32639
O         52.99566        50.53221         2.94937
O         61.88750        52.70340         3.54650
O         44.24484        52.84511        -2.56509
O         69.31757        65.05099        -0.26289
O         40.61162        51.09924        -4.70072
O         63.17019        50.52686         3.75404
O         64.27063        43.55221         2.67276
O         63.03762        47.85250         3.68028
O         53.25010        43.50067         3.09899
H         52.38057        43.07479         3.25379
O         67.15370        60.32577        -2.87313
H         67.60341        59.59946        -3.37665
O         57.02243        40.60492        -1.20694
H         57.81974        41.12344        -1.46954
O         68.72668        39.03208         1.57193
H         68.73850        39.87052         2.08184
O         50.85335        44.68876        -1.61261
H         51.71052        45.14467        -1.47057
O         51.62552        59.75452        -0.30449
H         52.51516        60.16450        -0.34737
O         67.79567        61.36704         0.59258
H         67.28652        61.87881         1.25732
O         54.67876        45.82645         3.30490
H         53.97484        45.18790         3.57463
O         46.05424        54.29911        -1.79309
H         46.13390        55.18411        -2.20916
O         52.58963        54.32291        -0.63550
H         53.53530        54.09973        -0.83273
O         65.94158        62.60500        -2.36526
H         66.31446        61.88538        -2.93315
O         68.82154        33.84797         0.23065
H         68.91119        32.91481         0.51380
O         56.67052        50.58231        -0.07908
H         56.08560        51.13613        -0.63709
O         43.48301        47.06995        -0.96101
H         43.07399        47.57927        -0.23036
O         56.75627        49.93975         3.50585
H         57.40068        49.46768         4.07378
O         53.42260        48.12642        -0.43561
H         54.29724        47.94497        -0.85633
O         59.32946        56.96528         0.22371
H         60.08138        57.26128        -0.33189
O         47.06903        54.77490         2.54687
H         46.57187        53.99578         2.88436
O         68.56070        57.97255        -3.18681
H         68.01277        57.15699        -3.19162
O         44.06252        53.09677         1.04585
H         44.58920        52.92881         1.86364
O         67.74055        54.32627        -2.15463
H         66.80416        54.61774        -2.27910
O         64.97142        58.54886         2.12977
H         65.79940        58.03379         2.27818
O         43.52480        55.63318         0.59192
H         43.35007        54.77577         1.05128
O         52.37104        48.04420         3.07822
H         52.77010        48.76329         3.62292
O         56.16511        41.90942         3.01092
H         56.25200        40.95454         3.21343
O         67.31148        56.93162         1.41460
H         68.17818        57.37384         1.54287
O         66.53723        68.17742         1.07761
H         67.41767        68.56860         0.89340
O         59.73604        40.88501        -1.28045
H         59.76360        40.17577        -1.95876
O         66.33915        51.18869         3.31580
H         66.42639        50.37254         3.85397
O         63.10306        59.04347        -0.98913
H         62.33147        59.60261        -1.21773
O         62.22956        42.09963        -1.19906
H         61.32929        41.85281        -1.52851
O         53.69741        60.46854         4.06858
H         52.92853        59.91221         4.31484
O         47.00886        45.49160         1.47025
H         46.71379        46.36211         1.83232
O         60.03507        40.72969         2.37306
H         60.00994        41.44561         3.04806
O         62.67863        51.77031         0.48597
H         62.67570        52.56901        -0.08558
O         60.27396        61.50562         3.60770
H         61.17631        61.88530         3.67903
O         68.28035        35.31485        -3.07703
H         68.21485        36.24247        -3.38566
O         41.29836        51.90291        -0.76947
H         40.40299        51.52335        -0.89521
O         59.01727        56.68425         3.85692
H         58.32710        56.29089         4.43006
O         56.37067        47.77431        -0.39738
H         57.26471        47.32551        -0.53889
H         38.25505        50.27985        -5.42726
H         36.06519        51.11695        -4.53810
H         38.17251        53.80286        -1.88916
H         36.03974        52.87191        -2.75947
H         41.31065        48.73070        -5.19341
H         39.83756        55.12019        -2.76914
H         42.89432        47.30073        -3.88501
H         41.69104        56.29387        -1.63358
H         46.76110        45.61884        -2.57953
H         45.14440        47.17865        -3.68506
H         45.81798        58.24409        -1.22013
H         43.76806        57.13593        -2.04757
H         46.82821        43.81648        -0.73789
H         46.70717        59.29592         0.44297
H         48.99356        42.78126        -1.04160
H         48.80515        60.50009         0.89148
H         52.28065        40.38432         0.65886
H         50.31107        41.70974         0.13474
H         52.24902        62.39834         2.79530
H         50.35504        61.40187         1.70947
H         53.95094        39.35995         1.00218
H         54.02190        63.41230         2.33043
H         56.00500        38.28579         0.35179
H         56.12683        64.62239         2.03830
H         59.82043        36.23472         0.08638
H         57.71076        37.42424         0.30552
H         59.80481        66.72236         1.13056
H         57.73227        65.54489         1.59148
H         61.44599        35.31840        -0.38936
H         61.44086        67.66692         0.92771
H         63.54218        34.16528        -0.82371
H         63.51939        68.82391         0.39642
H         67.19784        32.08910        -1.59377
H         65.12540        33.31872        -1.46831
H         66.55754        70.62514        -2.12192
H         64.74349        69.55083        -0.92674
H         68.86440        31.24760        -2.12857
H         68.18157        71.69352        -2.31538
H         72.92240        31.62456        -3.52935
H         70.86867        30.24344        -3.16454
H         72.95820        34.00062        -2.83159
H         73.11856        35.58770        -1.59353
H         73.11947        37.95891        -0.98507
H         73.02381        39.88911        -1.18799
H         73.02954        42.27772        -0.76137
H         73.06716        44.07978        -0.29642
H         73.21296        46.32005         0.62550
H         73.29551        48.28545         1.08424
H         73.06877        50.56829         0.31758
H         72.90442        52.26025        -0.44415
H         72.71098        54.50922        -1.33070
H         72.48000        56.25826        -2.15568
H         72.44420        58.65851        -2.41090
H         72.47456        60.52885        -2.52882
H         72.48796        62.92483        -2.92552
H         72.59707        64.97393        -2.95711
H         72.58058        67.40320        -2.88939
H         72.43574        69.27272        -3.30269
H         72.26760        71.69858        -3.67971
H         70.13622        72.91299        -3.18416
