         294
 CSIRO Nanostructure Databank - Neutral Graphene Oxide Data Set
C          1.28400         2.15494         0.31329
C          1.24274         3.55254         0.29349
C          2.45259         1.47130        -0.03070
C          2.40185         4.29689         0.02888
C          1.10496         6.50297         0.05965
C          1.06608         7.76608         0.50064
C          2.39038         5.79880        -0.28533
C          2.28943         8.51017         0.87964
C          1.05555        10.82795         0.79572
C          1.05902        12.16215         0.61972
C          2.28499        10.02156         1.01697
C          2.31312        12.92966         0.40832
C          1.05037        15.16270        -0.13278
C          1.05545        16.49010        -0.33995
C          2.29308        14.33700        -0.13772
C          2.18963        17.21975        -1.02057
C          2.39959        18.66897        -0.65491
C          3.62740         2.19228        -0.28673
C          3.60664         3.59225        -0.17444
C          4.83237         1.54871        -0.93630
C          4.88138         4.36635        -0.37255
C          3.62059         6.50232         0.28062
C          3.58766         7.77945         0.73536
C          4.84793         5.63082         0.50968
C          4.80371         8.52052         1.28901
C          3.61309        10.79737         1.03266
C          3.52320        12.05968         0.17061
C          4.82949         9.93538         0.72155
C          4.76300        12.66576        -0.39442
C          3.48776        14.90171        -0.86779
C          3.49690        16.40124        -1.03608
C          4.82682        14.11283        -0.92227
C          4.74379        17.10930        -0.49907
C          3.58402        19.29456        -0.82150
C          4.85569        18.57398        -0.86993
C          6.15670         2.15047        -0.54060
C          6.15697         3.55960        -0.17974
C          7.30868         1.39639        -0.51018
C          7.34072         4.17675         0.11828
C          6.17558         6.41106         0.40857
C          6.14863         7.76337         1.13256
C          7.36087         5.50084         0.86576
C          7.46231         8.50738         1.08854
C          6.09258        10.65388         0.55390
C          6.08718        11.87145        -0.39044
C          7.43252         9.98526         0.77753
C          7.31720        12.71281        -0.11080
C          6.01609        14.95388        -0.49309
C          6.02353        16.31177        -0.57597
C          7.27437        14.19795        -0.25546
C          7.33460        17.07846        -0.72536
C          6.04582        19.23000        -0.86273
C          7.30194        18.56562        -0.33918
C          8.60814         2.01293        -0.36606
C          8.59713         3.52173        -0.41858
C          9.79874         1.32125        -0.45727
C          9.88431         4.16558        -0.00146
C          8.68951         6.24132         0.72818
C          8.76096         7.74233         0.83323
C          9.88200         5.50921         0.25829
C          9.98846         8.43066         0.32083
C          8.57794        10.46540        -0.13640
C          8.61705        11.98112        -0.22444
C          9.96855         9.94018         0.28575
C          9.80153        12.65911        -0.25568
C          8.55698        14.90940        -0.54315
C          8.51357        16.33641        -0.13786
C          9.81280        14.12794        -0.44952
C          9.64752        16.89060         0.42453
C          8.61427        19.36030        -0.54099
C          9.85420        18.90776        -0.99967
C         11.09462         1.97396        -0.44484
C         11.11461         3.41788        -0.20474
C         12.29830         1.29636        -0.58386
C         12.31583         4.06689        -0.13644
C         11.13675         6.26574         0.40947
C         11.13770         7.72967         0.15155
C         12.38433         5.48262         0.20494
C         12.35776         8.32718        -0.59738
C         11.09649        10.53914        -0.67198
C         11.11361        12.01343        -0.32073
C         12.38592         9.81407        -0.46146
C         12.26783        12.69150        -0.06919
C         11.08408        14.88158        -0.19354
C         10.98234        16.35155         0.10769
C         12.21348        14.11537         0.47296
C         12.20006        17.18998         0.37150
C         11.13850        19.41007        -0.45610
C         12.23203        18.64924        -0.02054
C         13.59671         1.95490        -0.60385
C         13.62836         3.47337        -0.56549
C         14.79712         1.29596        -0.62696
C         14.70284         3.91965         0.49009
C         13.67866         6.17505        -0.01731
C         13.70398         7.64199        -0.23929
C         14.80827         5.44310         0.63423
C         14.91138         8.36472         0.26335
C         13.51721        10.52044         0.21054
C         13.56638        11.97419        -0.34642
C         14.92205         9.85625        -0.00009
C         14.80980        12.70808         0.03629
C         13.52042        14.90182         0.41446
C         13.48242        16.41414         0.32922
C         14.78863        14.17785         0.14411
C         14.70791        17.13724        -0.13900
C         13.49040        19.28425         0.22995
C         14.73866        18.58555         0.22510
C         16.10113         2.07898        -0.76023
C         16.07688         3.25154         0.28955
C         17.39004         1.30224        -0.60017
C         17.33976         3.98300         0.71034
C         16.05157         6.21430         0.89810
C         16.04550         7.69386         0.62319
C         17.39780         5.50299         1.04605
C         17.33734         8.42096         0.86023
C         16.00136        10.66050         0.78764
C         16.05142        12.05944         0.19310
C         17.34384         9.91788         0.87571
C         17.26398        12.73319        -0.00192
C         15.96260        14.88646        -0.44495
C         15.96764        16.38951        -0.47003
C         17.23743        14.11398        -0.53054
C         17.26767        17.04647        -0.19801
C         15.97065        19.20475         0.32473
C         17.25960        18.56551        -0.13687
C         18.58160         1.66288        -1.17274
C         18.71301         3.43004         0.56317
C         19.89522         1.10747        -0.80763
C         19.77093         4.10515        -0.14064
C         18.39379         6.22929         0.08845
C         18.66399         7.67304         0.60358
C         19.70547         5.51601        -0.21413
C         19.57046         8.45805        -0.37300
C         18.64933        10.70065         0.67844
C         18.50215        11.93109        -0.24656
C         19.77781         9.87683         0.09210
C         19.77517        12.75938        -0.17587
C         18.52921        14.90732        -0.70176
C         18.41193        16.31270        -0.08781
C         19.77647        14.13272        -0.30834
C         19.61086        16.91618         0.54171
C         18.44638        19.11637         0.59480
C         19.57765        18.36561         0.85242
C         20.97418         1.92123        -0.59598
C         20.94648         3.37155        -0.52635
C         22.08591         4.13657        -0.87168
C         20.86452         6.26571        -0.58233
C         20.86550         7.70166        -0.58816
C         22.05206         5.51637        -0.88515
C         22.04271         8.45251        -0.80201
C         20.95996        10.56384        -0.17427
C         20.99662        12.01163        -0.03031
C         22.10212         9.82793        -0.64096
C         22.21883        12.72905         0.14844
C         21.07790        14.91381        -0.34599
C         20.95755        16.21019         0.48030
C         22.26247        14.08824         0.07488
C         22.14049        17.05437         0.67814
C         20.77300        18.96849         1.33846
C         22.01812        18.33354         1.18669
O         16.34506        14.27668        -1.73003
O          7.25034        13.56009         1.07895
O         11.26734        15.82485        -1.26437
O         20.10395        16.08292         1.65882
O          6.91945         7.98719         2.34399
O         12.95163        16.95581         1.59136
O         17.39101         9.14466         2.13746
O          6.93186        10.85397         1.79671
O          9.22086        14.49093        -1.77749
O          2.62030        14.04839         1.28781
O          3.80108        11.88786        -1.24489
O         14.05010         6.68494        -1.32488
O          9.07460         6.90240         1.99042
O         16.64471         3.06838         1.62728
O          2.14063         9.16414         2.19143
O         14.42873        14.58132         1.53785
O          3.39980        15.52659        -2.19271
O         15.10913        16.92553        -1.54235
O         11.92587         5.82433         1.57385
O         15.12835         5.86539         2.00202
O          2.46788         5.88649        -1.74156
H          3.36118         5.55548        -2.01214
O          7.08784        18.55201         1.13208
H          6.89379        19.47413         1.40762
O          8.53192         3.82782        -1.87097
H          7.80803         3.28337        -2.25033
O         15.59998        10.89405         2.16061
H         16.02847        10.19295         2.70984
O          8.25603         9.85068        -1.39684
H          8.94314        10.14127        -2.04972
O         14.16284         3.41482         1.72298
H         14.50207         3.97724         2.45430
O         13.60356        11.83119        -1.82066
H         13.79027        12.71263        -2.21007
O         18.39742        11.36667        -1.60012
H         18.12737        12.08692        -2.21016
O          7.20969         5.16199         2.25458
H          7.68199         5.86318         2.76704
O         10.69880        10.39003        -2.05698
H         11.13020         9.56721        -2.39773
O         19.42522         7.61334         1.81289
H         18.90906         7.10548         2.48099
O         19.03640         2.48302         1.41794
H         18.20299         2.22279         1.89596
O         17.66126         6.27349        -1.15738
H         18.00769         7.04205        -1.68835
O          4.68218         5.12062         1.84903
H          4.77860         5.86207         2.48380
O          9.65386        17.84498         1.37767
H          8.71710        18.12791         1.56146
O         13.14051        10.56283         1.60865
H         13.88210        10.99145         2.11356
O         18.86580         8.56278        -1.66742
H         18.66691         9.52041        -1.83982
O          4.45563        17.14779         0.94462
H          5.25605        17.52126         1.38277
O         12.04534         8.00585        -1.99238
H         12.70827         7.32780        -2.28501
O         13.86016         4.05137        -1.85658
H         14.60479         3.56895        -2.29530
O         17.39171        18.96745        -1.55616
H         16.64261        18.54234        -2.03321
O          4.93776         4.72076        -1.80189
H          4.92005         3.85920        -2.29175
O         19.04544        11.20600         1.96726
H         18.97894        10.45704         2.60007
O         21.35023        15.33282        -1.72025
H         20.48345        15.41044        -2.18913
O          6.41985         6.79369        -0.96086
H          6.11929         6.06993        -1.56232
O         17.80710         5.60001         2.41605
H         16.98968         5.53822         2.96171
O          7.54001        17.06620        -2.18581
H          7.59527        16.12693        -2.47340
O         16.05357         2.68049        -2.07045
H         16.95839         2.94650        -2.35489
O         11.82285        14.03423         1.86470
H         12.65305        14.02170         2.39437
O          1.71589        17.34183        -2.40133
H          2.03780        16.53820        -2.87612
O          5.15548        13.91581        -2.32599
H          4.51296        13.26808        -2.68985
O         18.64527         2.62205        -2.15693
H         19.57679         2.73548        -2.43911
O         10.23671        10.40724         1.60875
H         11.19995        10.30643         1.80606
O         18.68551        15.16589        -2.13506
H         17.76933        15.16024        -2.51429
O          3.80539        11.27359         2.38219
H          3.78137        10.46795         2.95497
O          4.57666         8.64532         2.72246
H          5.46187         8.83592         3.11996
O          6.25899        11.38672        -1.73363
H          5.39436        11.02354        -2.02842
O         10.00861        18.02571        -1.99196
H          9.12826        17.65572        -2.27792
O          4.70026         1.82788        -2.36256
H          3.81816         1.50880        -2.64868
O         15.32247         9.91555        -1.38883
H         14.73685        10.55335        -1.87357
H          0.36935         1.58856         0.53751
H          0.28668         4.05882         0.48465
H          2.45317         0.37369        -0.10400
H          0.16355         5.99312        -0.19333
H          0.09687         8.25069         0.68920
H          0.09260        10.31187         0.92482
H          0.10080        12.70000         0.57491
H          0.14043        14.68900         0.26619
H          0.11700        17.05319        -0.21482
H          1.48916        19.27005        -0.50504
H          4.83166         0.43526        -0.78193
H          3.63537        20.39264        -0.74448
H          7.25107         0.30679        -0.66074
H          6.06048        20.32191        -1.01280
H          9.77300         0.22519        -0.57050
H          8.70492        20.14669         0.23116
H         12.28400         0.20009        -0.69330
H         11.26659        20.50602        -0.42310
H         14.83594         0.19629        -0.64914
H         13.52735        20.38557         0.22418
H         17.42311         0.54599         0.19685
H         16.01111        20.28359         0.54213
H         20.00368         0.01743        -0.71682
H         18.45459        20.19397         0.82017
H         21.96062         1.44715        -0.46445
H         23.01335         3.61372        -1.14696
H         22.97042         6.05159        -1.15640
H         22.97244         7.93463        -1.07717
H         23.04257        10.35775        -0.84233
H         23.13713        12.16798         0.37680
H         23.22292        14.60545         0.21432
H         23.13275        16.66548         0.41062
H         20.73935        20.01543         1.67296
H         22.92945        18.90740         1.41039
