         429
 CSIRO Nanostructure Databank - Neutral Graphene Oxide Data Set
C          1.25932         3.51086        -0.65038
C          0.09514         4.20407        -0.91605
C          1.19421         6.34279        -0.45265
C          0.07911         5.61320        -0.86440
C          1.19328         7.80469        -0.58160
C          0.52953         8.54310        -1.60055
C          1.63063        10.63758        -0.88899
C          0.69544         9.91616        -1.69935
C          1.73762        12.06445        -0.86770
C          0.96750        12.89002        -1.75681
C          2.09404        14.94155        -0.89597
C          1.06817        14.24067        -1.72896
C          1.64482        16.28966        -0.36550
C          0.45227        16.93431        -0.70130
C          1.35802        19.08805         0.01880
C          0.28710        18.30050        -0.44341
C          1.29165        20.54000         0.09701
C          0.06231        21.24345        -0.05142
C          1.18603        23.40078         0.16758
C          0.00656        22.61798         0.00476
C          1.17378        24.83998         0.17313
C         -0.05401        25.57733        -0.01039
C          1.07612        27.75098        -0.01282
C         -0.10268        26.94363        -0.10226
C          1.07149        29.14372        -0.17441
C         -0.11939        29.93584        -0.22765
C          1.15114        32.05081        -0.44996
C         -0.08038        31.29943        -0.37009
C          1.15625        33.48965        -0.54396
C         -0.04473        34.24836        -0.60837
C          1.20037        36.33840        -0.77239
C         -0.02613        35.62307        -0.72949
C          1.22102        37.77142        -0.83469
C          3.64479         3.47657        -0.07369
C          2.45418         4.20202        -0.30236
C          3.63241         6.25701         0.30237
C          2.41985         5.64046        -0.11271
C          3.71384         7.49409         0.98090
C          2.01405         8.55540         0.26434
C          3.46696        10.46766         0.83223
C          2.43917         9.86512         0.00360
C          3.24568        11.80425         1.05191
C          2.54706        12.70206         0.15064
C          3.64567        14.86701         1.16825
C          2.73913        14.09327         0.17856
C          3.81626        16.33240         0.79189
C          2.65669        17.01924         0.29573
C          3.75644        19.17143         0.68686
C          2.57535        18.43240         0.37010
C          3.72270        20.58572         0.56097
C          2.47477        21.27933         0.30243
C          3.63394        23.47271         0.39484
C          2.42941        22.71780         0.29423
C          3.62255        24.87196         0.47964
C          2.37790        25.55387         0.36066
C          3.63444        27.78254         0.26640
C          2.32582        27.03943         0.36682
C          3.64235        29.14928        -0.33297
C          2.33753        29.87304        -0.44453
C          3.62663        32.03861        -0.45902
C          2.36998        31.35068        -0.43599
C          3.62503        33.45298        -0.57089
C          2.40957        34.17834        -0.62056
C          3.65272        36.34772        -0.69096
C          2.42177        35.62076        -0.72265
C          3.65574        37.78037        -0.68054
C          2.39931        38.46711        -0.78687
C          6.09590         3.43588         0.16144
C          4.88966         4.11898         0.07469
C          6.14104         6.29240         0.50572
C          4.93035         5.61978        -0.08943
C          6.12431         7.66402         0.89919
C          4.84057         8.30651         1.11353
C          6.01190        10.52304         1.70995
C          4.60129         9.74519         1.62781
C          6.16221        12.02123         1.57694
C          5.05478        12.85070         1.70323
C          6.22807        14.87738         1.27852
C          5.00505        14.20692         1.34349
C          6.19550        16.34259         1.49573
C          4.95560        17.05273         1.10296
C          6.17057        19.24107         1.20722
C          4.97920        18.49449         0.99501
C          6.14215        20.63624         0.98687
C          4.93529        21.29178         0.64500
C          6.17562        23.45337         0.10695
C          4.90388        22.72006         0.27275
C          6.15944        24.93028         0.20637
C          4.92417        25.62649         0.73912
C          6.08757        27.76509         0.13538
C          4.90783        27.05650         0.25690
C          6.08516        29.19205         0.02050
C          4.90384        29.91222        -0.20779
C          6.13396        32.04061        -0.25116
C          4.87852        31.32383        -0.32703
C          6.14841        33.46111        -0.38039
C          4.91689        34.17099        -0.87845
C          6.06400        36.36265        -0.36935
C          4.88763        35.65283        -0.58278
C          6.09704        37.79885        -0.40388
C          4.87287        38.48096        -0.58463
C          8.52390         3.40939         0.19005
C          7.33762         4.12878         0.24375
C          8.58435         6.25266         0.60061
C          7.35749         5.58062         0.45217
C          8.59534         7.65701         0.89121
C          7.35374         8.33359         1.13156
C          8.62133        10.53420         1.55715
C          7.31501         9.76003         1.56308
C          8.64298        11.98643         1.33210
C          7.41474        12.69742         1.34392
C          8.69727        14.84731         1.31506
C          7.43826        14.14086         1.32652
C          8.79861        16.32194         1.73445
C          7.45807        17.07826         1.78149
C          8.70576        19.23446         1.25205
C          7.44372        18.62025         1.81593
C          8.77035        20.67708         1.18561
C          7.37888        21.45377         1.10606
C          8.62572        23.45883         0.33176
C          7.44482        22.78261         0.48680
C          8.57450        24.85076        -0.29589
C          7.32047        25.60264         0.06402
C          8.60531        27.78723        -0.17683
C          7.40504        27.06775         0.42491
C          8.56948        29.17004        -0.23916
C          7.37349        29.89834         0.33707
C          8.57727        32.06520        -0.05604
C          7.34558        31.35844        -0.02327
C          8.57207        33.48984        -0.02290
C          7.32547        34.16746        -0.15264
C          8.58260        36.39059         0.10115
C          7.28721        35.63391        -0.00142
C          8.58446        37.83563        -0.21992
C          7.34697        38.49148        -0.36165
C         10.89243         3.15822        -0.01478
C          9.81867         4.00719         0.23252
C         11.09183         6.29960         0.47508
C          9.83906         5.53896         0.13318
C         11.04948         7.75245         0.41595
C          9.83755         8.38126         0.88129
C         11.26045        10.50087         1.24884
C          9.92241         9.76258         1.34982
C         11.11236        12.00573         1.08647
C          9.88807        12.68829         1.14250
C         11.17698        14.91758         1.05179
C          9.87024        14.14512         1.11950
C         11.01047        16.29950         0.37656
C          9.87680        17.07637         0.99367
C         11.10155        19.20492         0.66821
C          9.86934        18.48403         0.94689
C         11.12036        20.58480         0.42240
C          9.93352        21.35843         0.63509
C         11.06524        23.43579        -0.02483
C          9.90545        22.77055         0.41660
C         11.00585        24.84623        -0.36656
C          9.82255        25.63711         0.13183
C         11.06999        27.72422        -0.54805
C          9.82967        27.06880        -0.34433
C         11.09300        29.19380        -0.71242
C          9.76993        29.94258        -0.56646
C         11.04316        32.04964        -0.15934
C          9.81573        31.36931        -0.20575
C         11.03954        33.47391         0.02485
C          9.81394        34.19925         0.03445
C         11.04813        36.33094        -0.00404
C          9.84208        35.62964         0.02351
C         11.06256        37.77662        -0.16844
C          9.82966        38.47911        -0.32663
C         13.39394         3.29342        -0.60212
C         12.27099         3.56324         0.12249
C         13.52697         6.31422         0.06741
C         12.33506         5.72406         0.60039
C         13.38614         7.73542        -0.46208
C         12.20771         8.45954         0.13553
C         13.57901        10.56025         0.29843
C         12.19321         9.96335         0.14475
C         13.65180        11.99458         0.60787
C         12.38504        12.74558         0.95902
C         13.58130        14.89410         0.25437
C         12.27585        14.12292         0.33887
C         13.56822        16.32797         0.25950
C         12.34611        17.01658         0.40244
C         13.69592        19.20791         0.54254
C         12.36265        18.43611         0.69655
C         13.55286        20.69938         0.51437
C         12.36338        21.31215         0.18235
C         13.47305        23.38994        -0.91619
C         12.19864        22.62320        -0.58260
C         13.55377        24.80483        -0.82009
C         12.30227        25.58168        -0.68618
C         13.58997        27.74188        -0.45303
C         12.29813        27.03404        -0.55328
C         13.57618        29.23330        -0.41626
C         12.34365        29.92926        -0.44166
C         13.52059        32.03803        -0.01725
C         12.30281        31.33377        -0.25290
C         13.47846        33.43441         0.25708
C         12.27238        34.17252         0.18871
C         13.48058        36.33874         0.25708
C         12.28116        35.61704         0.17402
C         13.52772        37.75286        -0.00782
C         12.29529        38.44145        -0.22208
C         15.82566         3.45060        -0.70263
C         14.62488         4.08554        -0.46496
C         15.78233         6.28927        -0.97194
C         14.61093         5.55197        -0.32776
C         15.85695         7.75629        -0.57474
C         14.69938         8.46559        -0.37051
C         15.98813        10.58814        -0.20820
C         14.72120         9.88590        -0.09020
C         15.99034        12.03279        -0.15471
C         14.81613        12.75042         0.10734
C         15.98991        14.90481        -0.26994
C         14.78046        14.18572         0.06293
C         15.96932        16.31787        -0.37379
C         14.80381        17.06504        -0.03666
C         15.93173        19.20236        -0.73486
C         14.80881        18.49765        -0.12367
C         15.90790        20.54247        -1.18018
C         14.62757        21.17979        -1.61472
C         15.76306        23.34729        -1.77700
C         14.57532        22.66600        -1.41198
C         15.76337        24.76832        -1.76182
C         14.73730        25.51941        -1.17333
C         16.13394        27.82795        -1.00229
C         14.86897        26.97839        -0.78540
C         16.07694        29.27790        -0.58129
C         14.78422        29.94454        -0.29515
C         16.01121        32.04110         0.21099
C         14.77738        31.34276        -0.03967
C         15.99719        33.42180         0.53934
C         14.70394        34.10134         0.67419
C         15.98616        36.33057         0.54292
C         14.70135        35.65995         0.67364
C         16.00219        37.72438         0.23945
C         14.76980        38.41212        -0.00528
C         18.30841         3.45734        -0.53568
C         17.08492         4.15387        -0.66207
C         18.30126         6.27159        -0.70947
C         17.08624         5.56302        -0.74335
C         18.31349         7.71825        -0.77619
C         17.13672         8.44073        -0.61885
C         18.42570        10.59092        -0.60859
C         17.16166         9.88664        -0.49646
C         18.46140        12.00863        -0.49325
C         17.21467        12.74852        -0.36762
C         18.47246        14.83224        -0.70581
C         17.18916        14.14289        -0.45367
C         18.45317        16.29136        -0.97150
C         17.11637        17.02426        -1.08231
C         18.39025        19.22547        -0.95047
C         17.20028        18.51532        -0.82783
C         18.40632        20.66292        -1.13069
C         17.11768        21.28254        -1.42532
C         18.86834        23.71761        -1.38685
C         16.98247        22.59081        -1.93331
C         18.79527        25.08124        -0.99161
C         17.70995        25.90493        -1.39811
C         18.55058        27.75615        -0.14586
C         17.46162        27.14233        -0.83154
C         18.57056        29.22940        -0.07230
C         17.30574        29.97997        -0.14610
C         18.46230        32.02713         0.68039
C         17.26642        31.32586         0.22604
C         18.42947        33.43807         0.89871
C         17.18126        34.14922         0.78289
C         18.39784        36.30969         0.88529
C         17.18016        35.60207         0.79355
C         18.44045        37.69944         0.55598
C         17.24841        38.38504         0.21547
C         19.50629         4.15632        -0.43996
C         20.74811         6.31147        -0.31025
C         19.52181         5.56064        -0.51491
C         20.79644         7.64690        -0.49400
C         19.62454         8.39034        -1.09852
C         20.83838        10.57452        -0.88278
C         19.63275         9.87700        -0.82146
C         20.88249        11.95767        -0.67310
C         19.70843        12.68761        -0.49143
C         20.96324        14.91702        -0.60847
C         19.72572        14.17200        -0.15582
C         20.95888        16.24490        -0.79119
C         19.70898        17.03611        -0.62576
C         20.92407        19.29641        -0.79030
C         19.67792        18.53002        -0.67907
C         20.86784        20.64627        -0.84950
C         19.62072        21.36645        -0.96162
C         20.64595        23.34531         0.19167
C         19.71487        22.81164        -0.75005
C         20.68086        24.69105         0.50142
C         19.73058        25.59764        -0.04703
C         20.70823        27.65501         1.03443
C         19.67477        27.00617         0.25232
C         20.73882        28.99654         1.23617
C         19.78058        29.89234         0.57023
C         20.78440        32.00912         1.43155
C         19.66659        31.32421         0.94086
C         20.75969        33.39747         1.58573
C         19.61110        34.12862         1.28133
C         20.89152        36.30516         1.03196
C         19.61444        35.63417         1.46355
C         20.89894        37.62604         0.65324
C         19.70341        38.35601         0.48476
O         13.74882        20.52442        -2.16442
O         16.83321        25.41812        -2.37061
O          3.85328        12.33560         2.19170
O         16.09910        28.82691        -2.04452
O         10.36335        29.66771        -1.88891
O          5.52491        22.90918        -1.10029
O         18.09726        23.25727        -2.47458
O          2.93861        27.67292         1.55608
O          2.48631         7.97645         1.44907
O         13.28724        18.69887         1.84509
O         11.35304        25.12311        -1.75477
O         19.68858        29.74687        -0.88868
O         13.34470        12.45967         2.00020
O         18.64705        15.34406        -2.07768
O          7.80666        36.06652         1.31321
O          6.68669         9.98070         2.89174
O          8.11317        21.35365         2.31870
O         14.44552        27.14743         0.60926
O         19.60514        17.77171         0.62900
O         14.56626        34.87384         1.90317
O          7.58164        27.10456         1.85982
O          9.40078        10.02823         2.70108
O         12.44326         4.46950         1.19095
O          3.01418        29.27249        -1.64739
O          6.64149        16.59201         2.90587
O          9.24726        16.26418         3.13311
H          8.44471        16.08416         3.67609
O          4.13777         9.65757         2.97894
H          4.92477         9.47591         3.54227
O         16.72598        16.97377        -2.49244
H         17.16347        16.17276        -2.87154
O         11.88308        13.78928        -1.02433
H         11.49935        14.60529        -1.43561
O         19.63866        14.28032         1.29055
H         20.42617        13.84751         1.68010
O         19.53716        35.85010         2.92792
H         19.48051        36.81865         3.07394
O         15.54230         6.27437        -2.41469
H         14.68664         6.75240        -2.55782
O          9.78746         5.72610        -1.34894
H          8.92181         5.37604        -1.65474
O          7.53399        29.80483         1.79070
H          7.55486        28.81500         2.01393
O          2.96010        14.89209         2.44789
H          2.98703        13.97367         2.80547
O          8.61599        24.68112        -1.73093
H          7.78504        24.24115        -2.01033
O         11.69455        10.40837        -1.15175
H         11.87544        11.37093        -1.24544
O          5.06507         5.84134        -1.55072
H          4.29077         5.41166        -1.97465
O          7.41009        19.00105         3.21458
H          6.82150        18.35200         3.66551
O          3.19737        15.29253        -1.83238
H          3.39363        14.48926        -2.36051
O         19.78702         8.27092        -2.55802
H         19.65560         7.32605        -2.78741
O          5.03161        34.09557        -2.35366
H          4.21115        34.47943        -2.73093
O         11.64886        22.21660        -1.88632
H         11.45384        23.04853        -2.37752
O         10.63585        16.09125        -1.04091
H         10.63103        16.96988        -1.47765
O         14.64369        21.43038         0.88680
H         15.35234        20.83474         1.20534
O         13.10401         7.57912        -1.90528
H         12.17047         7.28628        -1.99453
O          9.85662        25.68387         1.57076
H          9.04219        26.20628         1.87700
O          5.12644        25.71572         2.17900
H          5.98017        26.22895         2.30309
O         11.95704        10.23864         2.48590
H         11.32471        10.42216         3.21663
O         11.65216        15.13261         2.38997
H         10.93136        15.57122         2.90813
H          1.28770         2.41546        -0.73972
H         -0.81666         3.66299        -1.20434
H         -0.83712         6.14924        -1.14914
H         -0.14731         8.02719        -2.29669
H          0.09587        10.46030        -2.44156
H          0.26939        12.41516        -2.46007
H          0.48399        14.84670        -2.43623
H         -0.36164        16.38163        -1.19152
H         -0.66757        18.77253        -0.71320
H         -0.87147        20.68078        -0.18658
H         -0.97175        23.10775        -0.08879
H         -0.99490        25.02066        -0.11350
H         -1.07135        27.42735        -0.29133
H         -1.09662        29.44524        -0.11562
H         -1.03460        31.84246        -0.38384
H         -1.01644        33.73915        -0.56502
H         -0.97200        36.18205        -0.77458
H          0.26271        38.30745        -0.89671
H          3.60132         2.37738        -0.03891
H          2.39697        39.56655        -0.80999
H          6.10879         2.33650         0.10459
H          4.86611        39.58046        -0.62442
H          8.46568         2.31285         0.10503
H          7.33989        39.58291        -0.50510
H         10.66819         2.11180        -0.28179
H          9.86123        39.56142        -0.52434
H         13.38431         2.50508        -1.36971
H         12.31635        39.52861        -0.38972
H         15.84107         2.36036        -0.84938
H         14.80241        39.49475        -0.19635
H         18.30184         2.35952        -0.47908
H         17.29647        39.45185        -0.04710
H         20.45236         3.61383        -0.29916
H         21.63767         5.76318         0.03606
H         21.73992         8.18449        -0.32123
H         21.77684        10.04216        -1.08729
H         21.86124        12.45630        -0.67590
H         21.91016        14.36940        -0.72407
H         21.89052        16.76605        -1.05852
H         21.88871        18.77505        -0.73241
H         21.80046        21.22773        -0.87097
H         21.34022        22.66255         0.70108
H         21.42070        25.04784         1.23027
H         21.47142        27.02732         1.51539
H         21.48228        29.42729         1.92196
H         21.71184        31.46193         1.64881
H         21.66263        33.90852         1.94585
H         21.84599        35.77714         1.16640
H         21.85789        38.12805         0.45670
H         19.74301        39.41660         0.20043
