         229
 CSIRO Nanostructure Databank - Neutral Graphene Oxide Data Set
C        -10.36642         0.68593        -1.78529
C         -9.39269         1.42977        -0.88585
C         -7.97141         0.82912        -0.98055
C         -7.02379         1.54232        -0.02265
C         -6.08842         0.87358         0.73652
C         -5.02896         1.64284         1.53092
C         -3.67568         0.88679         1.56586
C         -2.43390         1.60552         1.17498
C         -1.26537         0.87601         0.87848
C         -0.04419         1.54900         0.57168
C          1.16600         0.80639         0.31266
C          2.41737         1.53048         0.19903
C          3.68472         0.77577        -0.06283
C          5.01039         1.43191         0.04781
C          6.18360         0.73987        -0.06836
C          7.47287         1.43833        -0.14020
C          8.66951         0.72339        -0.40576
C          9.90406         1.40830        -0.48282
C         11.11487         0.62350        -0.67104
C         -9.35676         2.92064        -1.26593
C         -8.17100         3.66259        -0.67953
C         -7.08290         2.99052        -0.04444
C         -6.02732         3.77003         0.53950
C         -4.87063         3.08117         1.07135
C         -3.65871         3.74760         1.17724
C         -2.40680         3.01949         1.12834
C         -1.19688         3.70059         0.81295
C         -0.03697         2.96663         0.54201
C          1.13314         3.67127        -0.09660
C          2.42555         2.89927         0.07090
C          3.71069         3.60797         0.26996
C          5.00648         2.86860         0.39109
C          6.32936         3.64215         0.43586
C          7.52255         2.83967        -0.03193
C          8.73643         3.55266        -0.20638
C          9.92516         2.81887        -0.39572
C         -8.16567         5.04086        -0.80730
C         -7.08454         5.83955        -0.31163
C         -6.01465         5.16867         0.37604
C         -4.88641         5.96912         0.86907
C         -3.62437         5.22354         1.22947
C         -2.28379         5.94010         1.23932
C         -1.22919         5.17095         0.41343
C          0.11643         5.87984         0.51724
C          1.23694         5.13530         0.26924
C          2.52170         5.79246        -0.00133
C          3.78545         5.06414         0.08573
C          4.99124         5.72627        -0.05180
C          6.25037         4.95175        -0.36756
C          7.53964         5.73553        -0.17603
C          8.71404         5.01302        -0.15629
C         -7.08967         7.22359        -0.45569
C         -6.07694         8.13090         0.19305
C         -4.78927         7.40830         0.52880
C         -3.59413         8.07993         0.60893
C         -2.33270         7.39700         0.81232
C         -1.12455         8.06023         0.62410
C          0.14234         7.34494         0.59524
C          1.33979         8.05901         0.50651
C          2.57774         7.29886         0.23263
C          3.89342         7.76728         0.60266
C          5.05608         7.14672         0.16905
C          6.30526         7.88802         0.04268
C          7.48778         7.17545        -0.13036
C         -5.80840         9.36474        -0.63663
C         -4.66309        10.03938        -0.51055
C         -3.61552         9.59622         0.48609
C         -2.26889        10.20301         0.22415
C         -1.09796         9.49753         0.34708
C          0.17086        10.16449         0.17886
C          1.37967         9.50596         0.29900
C          2.61699        10.22187        -0.06158
C          3.87580         9.87097         0.35703
C          5.20027        10.19773        -0.15122
C          6.27228         9.33645        -0.14530
C        -10.28230        -0.63441        -2.00052
C         -9.21465        -1.44460        -1.35921
C         -8.03087        -0.69171        -0.79822
C         -7.35214        -1.29872         0.36037
C         -6.23336        -0.58061         1.02301
C         -4.97787        -1.38904         1.46671
C         -3.66815        -0.63477         1.51200
C         -2.46826        -1.30579         0.97834
C         -1.32220        -0.55610         0.72349
C         -0.15185        -1.21865         0.21410
C          1.11706        -0.60102         0.18003
C          2.41704        -1.37691         0.42146
C          3.63544        -0.70684        -0.18833
C          4.92937        -1.52393        -0.33083
C          6.18550        -0.75845         0.13958
C          7.36192        -1.48448        -0.47860
C          8.63915        -0.72723        -0.70087
C          9.88927        -1.51053        -0.73720
C         11.11395        -0.73965        -0.76064
C         -9.51086        -2.81169        -0.89456
C         -8.68268        -3.41439         0.03014
C         -7.76533        -2.54756         0.74995
C         -6.07616        -3.66026         1.31680
C         -4.91008        -2.85960         1.22316
C         -3.73921        -3.49556         0.78616
C         -2.40240        -2.82340         0.98141
C         -1.37273        -3.36614         0.02528
C         -0.36449        -2.52517        -0.33192
C          1.52291        -3.59281        -0.44238
C          2.47744        -2.87941         0.19651
C          3.69405        -3.61019         0.65045
C          4.98261        -2.89203         0.35201
C          6.22669        -3.65879         0.04095
C          7.40040        -2.95314        -0.31456
C          8.60875        -3.64566        -0.58917
C          9.83738        -2.89044        -0.76485
C         -8.63698        -4.85719         0.24470
C         -7.48211        -5.58399         0.52646
C         -6.18966        -4.94470         0.77225
C         -4.98722        -5.60545         0.40307
C         -3.76502        -4.87083         0.40908
C         -2.61157        -5.53840        -0.10804
C         -1.39034        -4.78447        -0.39758
C         -0.06214        -5.63466        -0.50683
C          1.22394        -4.99556        -0.09425
C          2.36881        -5.81759         0.40145
C          3.69841        -5.12116         0.60647
C          4.97363        -5.82704         0.27042
C          6.21561        -5.06202        -0.01185
C          7.39094        -5.77929        -0.37736
C          8.58108        -5.06210        -0.60976
C         -7.44537        -7.02255         0.35066
C         -6.26029        -7.72362         0.23935
C         -4.98700        -7.01974         0.19313
C         -3.77965        -7.71290        -0.01104
C         -2.63292        -6.92265        -0.35032
C         -1.41745        -7.59014        -0.74636
C         -0.16052        -7.10566        -0.44037
C          1.01233        -7.98865        -0.14849
C          2.31521        -7.31526         0.21741
C          3.57420        -7.94044        -0.31009
C          4.87224        -7.19209        -0.33751
C          6.14837        -7.93565        -0.48799
C          7.33169        -7.23175        -0.49707
C         -6.21214        -9.16381        -0.01236
C         -5.04743        -9.84990         0.02120
C         -3.77340        -9.16899         0.49293
C         -2.51373       -10.03785         0.43724
C         -1.42251        -9.80669        -0.32694
C         -0.04333       -10.30413        -0.30081
C          1.05675        -9.47759        -0.42591
C          2.37427       -10.09252        -0.49297
C          3.57287        -9.41309        -0.46927
C          4.85950       -10.05091        -0.63253
C          6.04909        -9.36880        -0.64727
O          5.06029        -1.84426        -1.72478
H          4.78257        -1.04997        -2.23809
O          0.60118        -2.93450        -1.26169
O          1.54052        -7.93669         1.26329
O         -4.52110         5.71698         2.28808
O         -3.48173         0.09145         2.78132
O         -1.58547        -8.83293        -1.33600
O         -7.88873        -1.40052        -2.07785
O         -5.50950         1.74615         2.89094
H         -5.43718         0.84331         3.28423
O          4.49097        -5.75082         1.65613
O         -3.94343        -9.00552         1.94322
H         -4.78754        -8.53142         2.10166
H         -7.47205         0.23492        -2.78885
O          7.71140        -1.03794        -1.81791
O          6.16363         4.56556        -1.76538
H          6.00496         5.37272        -2.29789
O         -4.03847        10.11682         1.78945
H         -3.37409         9.82817         2.44973
O          6.25713        -0.92533         1.58002
H          6.88591        -0.26864         1.94582
O          0.78913         3.68278        -1.52125
H         -0.06861         4.20545        -1.57797
O         -9.81079         1.27731         0.48665
H        -10.72195         1.62452         0.57962
O          4.48076        -3.00273         1.71729
O         -7.46490         1.10181        -2.30885
O          6.61243         3.97641         1.81167
H          5.75812         3.91069         2.30331
O          4.01031        -7.22558        -1.53413
O          4.23830         3.14303         1.61868
O         -7.21726        -3.10768         1.91760
O         -5.95899        -0.92657         2.42090
O         -1.80695         5.90331         2.61033
H         -2.58673         6.06051         3.18807
O         -9.33803         3.04574        -2.69289
H         -8.55290         2.53415        -3.00476
O         -0.73546        -5.08419        -1.66632
O          2.55142        -1.19426         1.86213
H          3.30249        -1.76289         2.17560
O         -6.71209         8.56329         1.44021
H         -6.62212         7.83137         2.08672
O          3.44734         0.08610        -1.38837
O          3.94861         8.90866         1.40101
O         -1.97157        -3.19065         2.33679
H         -2.48028        -2.64861         2.97736
O         -1.54661         5.10978        -0.96209
O          2.53171         6.73109        -1.13012
O          1.41539        -5.26852         1.34953
H         12.06713        -1.27926        -0.86602
H         12.07145         1.16556        -0.71462
H         10.88446         3.34926        -0.49274
H          9.67940         5.54113        -0.10178
H          8.43629         7.72894        -0.22425
H          7.23158         9.76474        -0.48299
H          5.36323        11.21147        -0.55144
H          2.51018        11.04312        -0.78729
H          0.15714        11.23704        -0.06687
H         -2.23137        11.28958         0.04982
H         -4.47494        10.95001        -1.09949
H         -6.59059         9.70025        -1.33485
H         -7.96005         7.69858        -0.93555
H         -9.00658         5.54061        -1.31008
H        -10.30288         3.40854        -0.90648
H        -11.17174         1.26984        -2.25750
H        -11.02211        -1.15134        -2.63176
H        -10.30413        -3.38145        -1.40168
H         -9.51699        -5.42782        -0.09495
H         -8.40081        -7.56132         0.25486
H         -7.15492        -9.67801        -0.25508
H         -5.03884       -10.93302        -0.17126
H         -2.45324       -10.77705         1.24940
H          0.12938       -11.39145        -0.23821
H          2.39895       -11.18816        -0.60812
H          4.87079       -11.14349        -0.76387
H          6.98423        -9.93230        -0.78550
H          8.27890        -7.77320        -0.64603
H          9.50258        -5.61418        -0.84877
H         10.77697        -3.45815        -0.85054
