         196
 CSIRO Nanostructure Databank - Neutral Graphene Oxide Data Set
C        -11.07699         0.72554        -0.21926
C         -9.88858         1.51969         0.24493
C         -8.59242         0.74585         0.20298
C         -7.37700         1.47437         0.33062
C         -6.13897         0.76119         0.48267
C         -4.90507         1.46532         0.62949
C         -3.67299         0.75730         0.76884
C         -2.43938         1.46965         0.97308
C         -1.23242         0.74089         1.08569
C          0.02088         1.45884         1.37187
C          1.33545         0.73941         1.28453
C          2.55065         1.47143         0.89080
C          3.74191         0.75360         0.64829
C          4.96383         1.46308         0.39891
C          6.18951         0.75084         0.25108
C          7.41881         1.46607         0.12841
C          8.65290         0.75845         0.03727
C          9.88600         1.48293        -0.03595
C         11.11366         0.73744        -0.12589
C         -9.72918         2.82454        -0.48339
C         -8.56069         3.54330        -0.37664
C         -7.38592         2.90442         0.24198
C         -6.15408         3.58974         0.49223
C         -4.91289         2.89155         0.63532
C         -3.69957         3.63522         0.79148
C         -2.44205         2.92248         0.96280
C         -1.24174         3.64971         0.94379
C          0.03401         2.96577         1.20856
C          1.29690         3.63250         0.83687
C          2.51154         2.89184         0.72749
C          3.71928         3.58229         0.40383
C          4.95509         2.88378         0.28810
C          6.18197         3.60305         0.07852
C          7.41339         2.88947         0.07919
C          8.65184         3.60572         0.01025
C          9.86956         2.88683        -0.02533
C         -8.46418         4.82145        -1.08658
C         -7.69784         5.85635        -0.59559
C         -6.10048         5.00145         0.55335
C         -4.91427         5.74691         0.42854
C         -3.70471         5.04150         0.69447
C         -2.48346         5.84385         1.04596
C         -1.19994         5.07944         0.81155
C          0.01360         5.74435         0.68833
C          1.26321         5.01891         0.58052
C          2.46948         5.71040         0.24955
C          3.68801         4.98635         0.16591
C          4.89297         5.65028        -0.23319
C          6.17255         5.01608        -0.13796
C          7.42597         5.74898        -0.08827
C          8.61632         5.02805         0.01798
C         -7.16823         7.01797        -1.22703
C         -5.98836         7.67078        -0.82446
C         -4.92762         7.12668        -0.01480
C         -3.68035         7.86012         0.07854
C         -2.51127         7.24641         0.47475
C         -1.24614         8.00500         0.55960
C          0.05442         7.22724         0.65834
C          1.28770         7.88908         0.20160
C          2.45704         7.13709         0.03238
C          3.65736         7.78706        -0.41090
C          4.75342         6.97377        -0.70823
C          6.60553         8.06285        -0.52042
C          7.49623         7.20752         0.06729
C         -5.74405         8.95073        -1.49348
C         -4.70619         9.74977        -1.19919
C         -3.71031         9.36417        -0.14030
C         -2.36074         9.97351        -0.40401
C         -1.18937         9.37063        -0.02030
C          0.08419        10.00142        -0.18933
C          1.29257         9.29438        -0.09481
C          2.55175         9.94351        -0.33445
C          3.73797         9.23206        -0.46764
C          5.00785         9.95386        -0.40190
C          6.27678         9.45560        -0.27491
C        -11.04208        -0.61439        -0.34199
C         -9.82173        -1.37723        -0.12236
C         -8.58891        -0.65567         0.12503
C         -7.36121        -1.37610         0.23308
C         -6.13857        -0.66572         0.43660
C         -4.90610        -1.38071         0.52823
C         -3.67581        -0.66984         0.68891
C         -2.44212        -1.38445         0.71424
C         -1.20670        -0.68412         0.88683
C          0.01309        -1.41399         0.83721
C          1.30945        -0.75574         1.06747
C          2.53901        -1.42441         0.62040
C          3.74015        -0.69336         0.55378
C          4.96621        -1.38916         0.29602
C          6.19267        -0.67568         0.21663
C          7.42693        -1.38052         0.05432
C          8.65589        -0.66526        -0.00507
C          9.89000        -1.38270        -0.13331
C         11.11554        -0.62996        -0.17548
C         -9.81511        -2.75185        -0.20937
C         -8.60109        -3.50599        -0.07854
C         -7.36042        -2.80218         0.12689
C         -6.14583        -3.52271         0.20291
C         -4.89939        -2.80948         0.40085
C         -3.68001        -3.50533         0.42998
C         -2.44185        -2.80877         0.57653
C         -1.20199        -3.50619         0.54095
C          0.02528        -2.81264         0.60079
C          1.27231        -3.53802         0.43692
C          2.50107        -2.82919         0.37515
C          3.72951        -3.52262         0.11223
C          4.95822        -2.80666         0.11668
C          6.19178        -3.50536        -0.06833
C          7.42627        -2.79838        -0.06469
C          8.66252        -3.50986        -0.22225
C          9.87626        -2.78349        -0.23028
C         -8.60566        -4.89903        -0.18715
C         -7.40245        -5.64558        -0.10931
C         -6.16407        -4.94883         0.08576
C         -4.95741        -5.69705         0.15586
C         -3.64203        -4.96408         0.05905
C         -2.47254        -5.70400         0.67494
C         -1.17652        -4.97280         0.67847
C          0.06911        -5.70564         0.38995
C          1.26402        -4.96461         0.24359
C          2.47519        -5.64835        -0.11901
C          3.71901        -4.91986        -0.17082
C          4.94708        -5.58452        -0.41575
C          6.18098        -4.91115        -0.29826
C          7.42849        -5.62922        -0.44250
C          8.63166        -4.92626        -0.37836
C         -7.38981        -7.05363        -0.29755
C         -6.19792        -7.77891        -0.23561
C         -4.97928        -7.08781         0.04715
C         -3.74773        -7.89445         0.22483
C         -2.44906        -7.19581         0.52335
C         -1.18668        -7.85513         0.15986
C          0.03268        -7.10889         0.13824
C          1.24507        -7.78390        -0.20765
C          2.43905        -7.04048        -0.35617
C          3.63943        -7.74092        -0.84408
C          4.95167        -6.98498        -0.86061
C          6.21612        -7.74616        -0.80291
C          7.39831        -7.06101        -0.61785
C         -6.13722        -9.19725        -0.54312
C         -4.95866        -9.88027        -0.64135
C         -3.69104        -9.26271        -0.32404
C         -2.47298        -9.90069        -0.41943
C         -1.21288        -9.22071        -0.20434
C          0.01790        -9.89294        -0.44004
C          1.23612        -9.20811        -0.43147
C          2.48707        -9.89974        -0.63400
C          3.67274        -9.21712        -0.79461
C          4.95193        -9.86392        -0.95098
C          6.13915        -9.17826        -0.95087
O          1.49172        -0.17344         2.41861
O         -7.29021         5.69529         0.75276
O          0.01033         2.33316         2.54577
O         -0.55664         7.86829         1.85781
O         -3.20515        -7.84532         1.60100
O         -3.31649        -4.99527        -1.38552
H         -4.03991        -4.53418        -1.86177
O         -4.18957         9.94974         1.11911
H         -3.57849         9.65633         1.82810
O         -2.54848         6.04103         2.50549
H         -1.79043         6.63604         2.72983
O        -10.14850         1.84797         1.65903
H         -9.41132         2.41943         1.96369
O          4.18028        -7.19446        -2.09982
O         -1.93516        -5.29960         1.94989
O          5.77435         7.48716        -1.51023
H         12.06574        -1.17814        -0.25735
H         12.06245         1.29257        -0.16740
H         10.81956         3.44022        -0.07208
H          9.56872         5.57597         0.07779
H          8.27698         7.60266         0.73477
H          7.08457        10.14740         0.01147
H          4.89361        11.04105        -0.25459
H          2.56902        11.04317        -0.38292
H          0.10485        11.05499        -0.50513
H         -2.33282        10.99029        -0.82546
H         -4.59033        10.72461        -1.69591
H         -6.48165         9.26625        -2.24774
H         -7.70050         7.42425        -2.10129
H         -8.99500         4.92109        -2.04469
H        -10.59844         3.26856        -0.99122
H        -12.01499         1.27476        -0.39138
H        -11.94532        -1.17067        -0.63634
H        -10.75321        -3.29308        -0.40409
H         -9.55664        -5.42738        -0.35085
H         -8.33429        -7.57161        -0.52163
H         -7.08341        -9.71166        -0.76816
H         -4.96220       -10.93778        -0.94542
H         -2.43741       -10.94673        -0.76107
H          0.00505       -10.97088        -0.66014
H          2.48013       -11.00028        -0.65464
H          4.96519       -10.96176        -1.02551
H          7.08360        -9.73826        -1.02410
H          8.35238        -7.61018        -0.60783
H          9.58251        -5.47029        -0.48311
H         10.82695        -3.32683        -0.33961
