         261
 CSIRO Nanostructure Databank - Neutral Graphene Oxide Data Set
C        -10.72767         0.83728        -1.44530
C         -9.49904         1.62807        -1.05304
C         -8.65752         0.83597        -0.05023
C         -7.69920         1.54454         0.86309
C         -6.37276         0.87071         1.19683
C         -5.08878         1.73081         1.13225
C         -3.79215         0.98391         1.11412
C         -2.58666         1.54138         0.40971
C         -1.25409         0.99616         0.89568
C         -0.02787         1.63179         0.30805
C          1.26673         0.88194         0.19532
C          2.22090         1.41375        -0.88887
C          3.56863         0.72070        -0.85011
C          4.86707         1.43011        -0.65027
C          6.05267         0.59943        -0.27823
C          7.33616         1.30041         0.06775
C          8.61972         0.64643        -0.33874
C          9.91197         1.32851         0.02839
C         11.06413         0.42682         0.28717
C         -9.78145         3.04490        -0.61622
C         -8.93918         3.72952         0.20800
C         -7.91029         3.02788         1.06035
C         -5.47399         4.40155         1.35943
C         -4.95855         3.17093         0.62499
C         -4.12278         3.42418        -0.65138
C         -2.72667         2.77020        -0.45660
C         -1.47140         3.53251        -0.81500
C         -0.17424         2.84686        -0.57048
C          1.07201         3.67864        -0.59579
C          2.34846         2.95513        -0.77552
C          3.61520         3.66942        -0.38621
C          4.89827         2.91477        -0.40654
C          6.10560         3.56378         0.21310
C          7.36985         2.79400         0.32316
C          8.65692         3.53465         0.35400
C          9.88919         2.71021         0.70587
C         -8.95308         5.18484         0.31058
C         -7.78088         5.91210         0.02416
C         -6.68865         5.16112        -0.68183
C         -5.33541         5.80254        -0.90216
C         -4.06306         4.96955        -0.96202
C         -2.78291         5.70379        -0.58522
C         -1.44345         5.06229        -0.96679
C         -0.30718         5.71906        -0.12983
C          0.98185         4.99820         0.07930
C          2.25237         5.72043         0.47646
C          3.56337         4.96210         0.40328
C          4.86106         5.69144         0.61488
C          6.09407         5.06646        -0.07061
C          7.42857         5.72370         0.25599
C          8.63873         4.89933         0.33586
C         -7.64406         7.27752         0.29567
C         -6.50751         8.05594        -0.19492
C         -5.29931         7.30676        -0.75028
C         -3.96826         8.01247        -0.69658
C         -2.77191         7.18849        -0.32177
C         -1.49158         7.97415         0.05698
C         -0.21413         7.21746        -0.24925
C          1.07811         7.94504        -0.08699
C          2.27971         7.22012         0.45780
C          3.57937         7.97225         0.58600
C          4.86936         7.19234         0.76970
C          6.18168         7.88945         0.50592
C          7.43437         7.07968         0.36870
C         -6.30602         9.45341         0.25551
C         -5.16009        10.13518         0.05001
C         -3.91703         9.50041        -0.44130
C         -2.61172        10.16664        -0.19153
C         -1.43006         9.46352        -0.19547
C         -0.11911        10.10913        -0.15948
C          1.06367         9.43813        -0.07632
C          2.38538        10.11939        -0.39705
C          3.63044         9.41548         0.15857
C          4.96355         9.93980        -0.23693
C          6.11518         9.25657        -0.06374
C        -10.67283        -0.49857        -1.57474
C         -9.47394        -1.28744        -1.20791
C         -8.38449        -0.60365        -0.41730
C         -7.59976        -1.41127         0.61749
C         -6.28742        -0.63698         0.97440
C         -4.93551        -1.14014         0.41972
C         -3.79049        -0.52286         1.20357
C         -2.48014        -1.22206         1.35163
C         -1.18350        -0.44476         1.37499
C          0.14563        -1.21854         1.35455
C          1.35537        -0.54960         0.71331
C          2.60609        -1.37382         0.33912
C          3.48082        -0.78595        -0.77923
C          4.72768        -1.53546        -1.12094
C          6.02787        -0.86432        -0.71877
C          7.32646        -1.60721        -0.73385
C          8.61265        -0.82518        -0.68310
C          9.87393        -1.63150        -0.47958
C         11.03017        -0.91225         0.10455
C         -9.56401        -2.74430        -1.13113
C         -8.51425        -3.50225        -0.65563
C         -7.39834        -2.95425         0.24025
C         -6.01313        -3.43896        -0.26901
C         -4.79582        -2.66422         0.13259
C         -3.54119        -3.45183         0.53861
C         -2.42086        -2.72740         1.25203
C         -1.16635        -3.48236         1.59578
C          0.19533        -2.76533         1.71199
C          1.24242        -3.55076         0.89287
C          2.36401        -2.87116         0.17291
C          3.58103        -3.67705        -0.25958
C          4.75268        -3.04559        -0.97695
C          6.06474        -3.72492        -1.45330
C          7.42151        -3.00396        -1.32199
C          8.58490        -3.76336        -0.74066
C          9.71293        -3.10011        -0.33662
C         -8.49329        -4.91042        -0.73613
C         -7.35314        -5.66334        -0.33932
C         -5.96073        -4.98869        -0.44934
C         -4.93339        -5.65005         0.50119
C         -3.59758        -4.96005         0.67029
C         -2.49288        -5.75237         1.37712
C         -1.18322        -5.02666         1.60927
C          0.13271        -5.78528         1.59954
C          1.41361        -5.00213         1.33349
C          2.71742        -5.74926         1.10805
C          3.83656        -5.01452         0.35545
C          5.00039        -5.73214        -0.26016
C          6.02186        -5.28984        -1.33655
C          7.38777        -5.97073        -0.97301
C          8.49123        -5.20458        -0.67666
C         -7.39742        -7.02797        -0.23628
C         -6.21717        -7.92046         0.04637
C         -5.00201        -7.13571         0.55535
C         -3.74659        -7.94057         0.70998
C         -2.50447        -7.26965         1.23639
C         -1.19773        -8.02904         1.17037
C          0.11604        -7.29021         1.38579
C          1.40555        -8.02597         1.05555
C          2.70803        -7.28523         1.10220
C          3.87021        -7.99895         0.47975
C          4.88263        -7.20503        -0.22371
C          6.57868        -8.36728        -0.95282
C          7.56897        -7.42256        -0.81002
C         -5.83273        -8.80095        -1.12787
C         -4.63542        -9.40668        -1.17801
C         -3.59218        -9.16951        -0.14938
C         -2.23947        -9.75672        -0.29192
C         -1.16600        -9.30897         0.40042
C          0.11354       -10.11782         0.45482
C          1.32720        -9.23134         0.11340
C          2.60701       -10.03302         0.00265
C          3.82400        -9.43542         0.06834
C          5.09899       -10.17298        -0.12135
C          6.34920        -9.73123        -0.48356
O          2.03359         6.47075         1.69055
O         -4.34799         3.98960         1.74092
O         -2.97472         6.21341         0.75857
O          1.15538        -0.55256         2.15095
O          2.23998        -8.06879         2.24019
O          1.72655         3.67342        -1.89430
O         -5.38324        -6.29798         1.70934
O          9.46358        -1.13819        -1.80892
O         -2.70063         1.43464        -1.03414
O         -3.39651        -0.97394         2.49736
O          6.51774         3.13266         1.50724
O          4.39720         1.12464        -1.98885
O         -2.10421        -3.10482         2.63410
O         -0.04889         5.05341         1.11900
O          5.65416         7.70934         1.87473
O          2.41325        -5.13392         2.38263
O         -6.91711         4.03586        -1.11717
O          5.55740        -5.78671        -2.58733
O          0.21686        -6.69959         2.70903
O         -4.25788         1.61180         2.32658
O          3.73077        -1.23292        -2.14601
O          9.37335         1.41276        -1.32716
O          7.50584        -2.92068        -2.79766
O          3.66601        -3.69160        -1.71081
O         -1.19325         0.67520         2.29860
O         -3.07176        -4.32496        -0.53316
O         -8.15681        -0.83817        -1.81742
O          1.15210        -3.29133        -0.53496
O         -5.22392        -2.81488        -1.27597
O          1.05886         1.84477         1.25913
O         -8.95615         0.96506         1.35938
O         -1.53986         8.21965         1.44863
O         -3.84935         8.92721        -1.81508
O         -0.78155         2.80610        -1.88648
O          3.47386         9.05964         1.55930
O         -1.99997        -7.99881         2.38593
O          5.20646        -7.75585         1.06942
O          5.13129        -5.10245         1.03589
O          5.93611         5.23350        -1.45482
O         -5.54827        -5.31998        -1.71124
O         -6.31953        -0.07172         2.29807
O         -7.55626        -3.69457         1.40644
O         -4.71345         5.36700        -2.17223
O         -2.07321        -5.41608         2.70455
O         -7.42019         3.60015         2.02464
O          6.51837        -1.64238         0.45671
O          6.52531         0.67413         1.09684
O          0.58631         7.52929        -1.43462
O          4.27463         4.89711         1.67628
O         -6.25552         7.90180        -1.65019
O         -4.02661        -9.25091         1.25850
O          5.35606        -7.85344        -1.38736
O          4.49843         3.69020        -1.57142
O          6.11387        -3.39249        -2.90996
H          5.78032        -5.12095        -3.28140
O          2.48194        10.18425        -1.83202
H          2.03921         9.39942        -2.21904
O          3.50757        -1.26392         1.46642
H          2.96337        -1.19338         2.28855
O         -1.22977         5.37634        -2.34504
H         -0.79848         4.59851        -2.77151
O         -8.43114        -1.43668         1.76750
H         -8.22131        -2.29141         2.23168
O          0.60234        -2.86644         3.07080
H         -0.17321        -2.68034         3.64471
O          0.27005       -10.68245         1.75532
H          0.17733        -9.97577         2.42874
O          1.60825         1.07588        -2.13268
H          2.22621         1.31687        -2.85660
O         -4.81521        -0.44847        -0.84912
H         -5.06602        -1.07168        -1.57459
O         -6.64864        -8.79088         1.11760
H         -6.46320        -8.33624         1.96764
O         -8.69328         1.78978        -2.25283
H         -8.41016         0.88649        -2.54007
O          1.07026        -8.61788        -1.18832
H          1.23967        -9.28402        -1.88745
O         -4.69447         2.75688        -1.76245
H         -5.50448         3.24663        -2.04240
O          9.91689         2.54739         2.13150
H          9.00209         2.41888         2.45989
H         11.89980        -1.51643         0.40538
H         11.95203         0.88024         0.75308
H         10.81893         3.26329         0.41700
H          9.59055         5.44356         0.44732
H          8.38595         7.60843         0.54366
H          7.05943         9.69797        -0.41745
H          4.98836        10.92467        -0.72658
H          2.37808        11.17350        -0.01759
H         -0.10693        11.20632        -0.25802
H         -2.59698        11.26804        -0.21189
H         -5.08542        11.17634         0.39834
H         -7.16283         9.95513         0.72952
H         -8.39830         7.78364         0.91803
H         -9.88055         5.72119         0.56780
H        -10.50978         3.60589        -1.22423
H        -11.64435         1.38241        -1.71487
H        -11.55926        -1.06202        -1.90375
H        -10.49444        -3.23405        -1.45957
H         -9.28588        -5.42078        -1.31127
H         -8.38235        -7.51988        -0.16836
H         -6.58132        -8.98690        -1.91126
H         -4.38221       -10.06960        -2.01926
H         -2.15192       -10.68588        -0.87811
H          0.05582       -10.96433        -0.27584
H          2.51659       -11.09723        -0.26507
H          5.02262       -11.24404         0.13293
H          7.18635       -10.44519        -0.43033
H          8.55965        -7.73468        -0.44485
H          9.41149        -5.72729        -0.36942
H         10.55297        -3.67393         0.08375
