         236
 CSIRO Nanostructure Databank - Neutral Graphene Oxide Data Set
C        -10.83048         0.25184        -0.95566
C         -9.66822         1.07248        -0.69719
C         -8.69239         0.62404         0.31905
C         -7.38512         1.29653         0.42444
C         -6.37168         0.73178         1.20568
C         -5.04149         1.38616         1.32761
C         -3.86963         0.64253         1.49690
C         -2.53123         1.21649         1.61873
C         -1.39665         0.72884         1.03871
C         -0.12686         1.44908         1.09974
C          1.05031         0.73336         1.16726
C          2.31855         1.45805         1.46378
C          3.62336         0.70167         1.31674
C          4.91938         1.45243         1.41885
C          6.14706         0.83350         0.81387
C          7.33265         1.48929         0.76302
C          8.56766         0.77430         0.35784
C          9.84743         1.54749         0.14499
C         10.94644         0.88761        -0.60697
C         -9.45003         2.25156        -1.35597
C         -8.26843         3.05629        -1.13710
C         -7.19625         2.55912        -0.26778
C         -6.10836         3.35011         0.06318
C         -5.18868         2.95742         1.24533
C         -3.86429         3.92766         1.29993
C         -2.50007         3.30879         1.34611
C         -1.42082         3.60115         0.55097
C         -0.05940         2.92600         0.69479
C          0.95525         3.76206         1.57465
C          2.31052         2.97510         1.54271
C          3.58281         3.67974         1.19080
C          4.87338         2.96491         1.51034
C          6.17977         3.67777         1.34291
C          7.51747         2.88205         1.36671
C          8.64743         3.66457         0.66767
C          9.74079         3.01478         0.16929
C         -8.23135         4.31714        -1.69248
C         -7.02510         5.12734        -1.61300
C         -5.96872         4.63740        -0.63325
C         -4.94435         5.61593        -0.23235
C         -3.82838         5.10398         0.35632
C         -2.54607         5.71083         0.03992
C         -1.50828         4.81166        -0.25117
C          0.00867         6.10985         1.24354
C          1.06953         5.21965         1.11947
C          2.30053         5.66161         0.40287
C          3.58279         4.96007         0.72198
C          4.86873         5.78359         0.85005
C          6.12494         4.95675         0.52247
C          7.39423         5.78317         0.64743
C          8.59175         5.10473         0.67789
C         -7.01022         6.54909        -2.04342
C         -5.99700         7.39979        -1.72378
C         -5.00501         7.06642        -0.63538
C         -3.64837         7.70856        -0.82778
C         -2.48233         7.08996        -0.36846
C         -1.21838         7.80669        -0.27761
C         -0.09109         7.33135         0.41333
C          1.23462         8.03921         0.27836
C          2.34914         7.06781        -0.10672
C          3.66827         7.74089        -0.38355
C          4.92755         7.05842         0.03190
C          6.17039         7.85980         0.16522
C          7.34226         7.20550         0.51023
C         -5.88823         8.73661        -2.27830
C         -4.76990         9.49975        -2.10610
C         -3.58886         8.99159        -1.43546
C         -2.35010         9.65452        -1.49821
C         -1.17983         9.10487        -0.93761
C          0.05482         9.80332        -1.06578
C          1.24262         9.26311        -0.60630
C          2.50544         9.88947        -0.81377
C          3.69727         9.20682        -0.59737
C          4.96492         9.86674        -0.59570
C          6.12857         9.23976        -0.20308
C        -10.94701        -1.03297        -0.50883
C         -9.90250        -1.67907         0.24953
C         -8.81752        -0.83401         0.78493
C         -7.63182        -1.45178         1.38248
C         -6.64012        -0.56823         1.79040
C         -4.80169        -1.66770         1.92076
C         -3.73484        -0.82947         1.43033
C         -2.59717        -1.42947         0.91096
C         -1.43704        -0.61115         0.37877
C         -0.11876        -1.32831         0.52267
C          1.05936        -0.70643         0.88872
C          2.33289        -1.43397         0.78461
C          3.61158        -0.71516         0.84590
C          4.80661        -1.33269         0.57177
C          5.99430        -0.51116         0.12589
C          7.29181        -1.28466        -0.05150
C          8.45863        -0.58796        -0.19999
C          9.58249        -1.18037        -1.02866
C         10.86010        -0.37910        -1.03470
C         -9.89141        -3.02802         0.50094
C         -8.77258        -3.71391         1.11231
C         -7.61150        -2.92360         1.61436
C         -6.24948        -3.71268         1.70205
C         -4.98300        -2.96817         1.52102
C         -3.75554        -3.65900         1.08172
C         -2.54900        -2.86584         0.73876
C         -1.42926        -3.48437         0.22442
C         -0.17191        -2.72408         0.06040
C          1.11742        -3.48301         0.00743
C          2.34022        -2.75907         0.40310
C          3.60411        -3.46906         0.12803
C          4.90041        -2.84272         0.59161
C          6.09592        -3.47147        -0.10649
C          7.26773        -2.72142        -0.33184
C          8.46404        -3.40574        -0.69578
C          9.78829        -2.66421        -0.70820
C         -8.77324        -5.09069         1.08756
C         -7.56581        -5.92064         1.20301
C         -6.25401        -5.18602         1.35748
C         -5.16806        -5.71016         0.42618
C         -3.82209        -5.08651         0.70545
C         -2.67865        -5.69956        -0.02571
C         -1.42355        -4.91334        -0.18445
C         -0.16297        -5.68049        -0.21550
C          1.07544        -4.97426         0.13663
C          2.35648        -5.74223         0.08638
C          3.60604        -4.94360        -0.09073
C          4.90318        -5.67205        -0.01840
C          6.10613        -4.86775        -0.31524
C          7.25949        -5.53546        -0.79367
C          8.44545        -4.77724        -0.94240
C         -7.55184        -7.25233         0.54563
C         -6.38257        -7.91099         0.23039
C         -5.10173        -7.21970         0.27799
C         -3.92654        -7.87387        -0.01747
C         -2.58468        -7.19540         0.18001
C         -1.44438        -7.75552        -0.64972
C         -0.14002        -7.05690        -0.44641
C          1.07341        -7.79929        -0.55969
C          2.34434        -7.15866        -0.35739
C          3.54810        -7.81242        -0.56637
C          4.85941        -7.14057        -0.37217
C          6.04226        -7.68572        -1.06972
C          7.18325        -6.92705        -1.19075
C         -6.35852        -9.31561        -0.13211
C         -5.19141        -9.97408        -0.36836
C         -3.91055        -9.29183        -0.35516
C         -2.74062        -9.94292        -0.69593
C         -1.47344        -9.22676        -0.94294
C         -0.18878        -9.89585        -1.09640
C          1.04268        -9.20685        -0.94890
C          2.25699        -9.87693        -1.16771
C          3.58813        -9.30077        -0.78271
C          4.74661        -9.69875        -1.67001
C          5.88435        -8.97179        -1.73501
O         -7.03820        -3.38439         2.86409
O         -2.19402        -7.41111         1.56157
H         -2.74986        -6.84598         2.14319
O         -5.56228        -5.19064        -0.88517
H         -4.88034        -5.45952        -1.53965
O          7.98351         2.76563         2.66851
O          4.92536         6.21407         2.22468
H          5.07936         5.40460         2.77853
O         -0.97955         5.87484         2.15526
H         -0.69034         5.10301         2.70984
O          3.88737        -9.90695         0.53822
H          3.35492        -9.42857         1.20971
O          1.62853         8.49381         1.61439
H          0.98172         9.16870         1.90929
O          0.55590         2.87201        -0.62837
H          0.09426         2.18464        -1.15628
O          5.63063        -0.15196        -1.26964
H          5.39295        -0.97971        -1.74055
O         -2.37653        -5.18634        -1.33900
O          9.10935        -1.11668        -2.41070
H          8.21949        -1.52794        -2.44527
O         -5.98123         3.28182         2.39453
H         -5.38164         3.42226         3.16008
O         -5.72434        -1.02706         2.74821
O         -1.64381        -0.41427        -1.06045
H         -1.42839        -1.25887        -1.51339
O          0.51093        -2.98186        -1.23199
O         -6.73921        -5.99250         2.44425
O         -2.38475         2.38754         2.38965
O         10.39993        -2.77902         0.57770
H         10.35520        -3.71293         0.86630
O          5.00718        -3.21394         1.99874
H          5.73631        -2.69831         2.40361
O         -3.47673        -4.78921         2.08366
O         -3.94646         4.57899         2.61689
H         -3.16465         5.16919         2.69864
O         -9.31667         0.28596         1.59664
O         -0.62264         5.11385        -1.20205
H          0.10671         4.43967        -1.22803
O         -5.57318         7.74206         0.55475
H         -4.97336         7.56165         1.30974
O          6.01853         4.50440        -0.85130
H          5.69846         5.25387        -1.40296
O         -1.73105        -8.12363        -2.00806
O          0.44232         3.75159         2.91558
H          0.92932         3.03716         3.40322
O          2.04975         5.99231        -1.03442
O          5.53655         3.64045         2.64363
O         -5.82476         4.41153        -2.10889
O          4.40687         0.74340         2.57815
O          5.06234        -6.67086         1.02045
O          1.70424        -5.47889         1.37417
O          4.47647         6.97145        -1.35414
O          3.60809        -4.02815        -1.23794
O          9.59116         0.86596         1.41648
O          2.36273         2.16824         2.75649
H         11.71905        -0.84247        -1.54399
H         11.88714         1.44826        -0.72504
H         10.52889         3.59404        -0.33921
H          9.53819         5.66944         0.66454
H          8.28372         7.77312         0.57503
H          7.06598         9.81452        -0.16900
H          4.98901        10.93707        -0.84897
H          2.53370        10.93787        -1.14928
H          0.07000        10.74972        -1.62753
H         -2.28294        10.62571        -2.01100
H         -4.71300        10.49746        -2.56637
H         -6.71948         9.11427        -2.89317
H         -7.78985         6.86953        -2.75342
H         -9.12081         4.71760        -2.20111
H        -10.18911         2.61364        -2.08652
H        -11.62191         0.67945        -1.58900
H        -11.83008        -1.62875        -0.78265
H        -10.72113        -3.64935         0.12946
H         -9.66062        -5.58872         0.66331
H         -8.51177        -7.78429         0.45179
H         -7.31530        -9.85685        -0.17395
H         -5.20469       -11.04562        -0.61716
H         -2.77149       -11.02329        -0.90754
H         -0.17072       -10.98250        -1.26970
H          2.22954       -10.93950        -1.45584
H          4.67794       -10.65583        -2.20908
H          6.72654        -9.32985        -2.34779
H          8.05859        -7.35715        -1.70193
H          9.37347        -5.28279        -1.25129
H         10.46297        -3.11972        -1.49220
