         345
 CSIRO Nanostructure Databank - Neutral Graphene Oxide Data Set
C          1.49642         2.29119        -2.38358
C          1.42692         3.63745        -2.16108
C          2.65492         1.54101        -2.04667
C          2.49594         4.33822        -1.36188
C          1.45465         6.57190        -1.87983
C          1.46892         7.96544        -1.85878
C          2.60692         5.83464        -1.58414
C          2.61452         8.65659        -1.44818
C          1.56529        10.96591        -1.87630
C          1.75706        12.29826        -2.04289
C          2.52943        10.11016        -1.15121
C          2.88660        13.02357        -1.50386
C          2.09976        15.20209        -2.43580
C          2.27041        16.52648        -2.62858
C          3.07746        14.37821        -1.73898
C          3.54572        17.24154        -2.28442
C          3.30971        18.60133        -1.66843
C          3.83459         2.18882        -1.63724
C          3.82427         3.62851        -1.44976
C          5.03238         1.45171        -1.44436
C          5.00426         4.32346        -1.26167
C          3.81752         6.51738        -1.30675
C          3.81004         7.94059        -1.17541
C          5.05100         5.76371        -1.10905
C          4.99726         8.64510        -0.72761
C          3.70800        10.78338        -0.51182
C          3.75887        12.32179        -0.46578
C          4.96143         9.99023        -0.39177
C          5.15891        12.88591        -0.41411
C          4.27196        15.06266        -1.23290
C          4.47315        16.40749        -1.43335
C          5.30041        14.26444        -0.57419
C          5.71935        17.13340        -0.96577
C          4.20413        19.18036        -0.83876
C          5.42325        18.51909        -0.40891
C          6.26198         2.09931        -1.24613
C          6.27382         3.57520        -1.33761
C          7.46764         1.41038        -1.03752
C          7.54338         4.29525        -0.92946
C          6.24850         6.42245        -0.79743
C          6.32927         7.93164        -0.85245
C          7.46464         5.70933        -0.53505
C          7.41834         8.47544         0.04763
C          6.14507        10.67881         0.07278
C          6.23822        12.06150         0.05552
C          7.27633         9.85233         0.56386
C          7.55794        12.75149         0.35154
C          6.40367        14.95826         0.04071
C          6.53258        16.32779         0.00673
C          7.29018        14.12949         0.88770
C          7.43904        17.00746         0.91065
C          6.34971        19.15457         0.37260
C          7.52937        18.47607         0.88894
C          8.68469         2.07411        -0.70994
C          8.69683         3.49188        -0.52597
C          9.88561         1.34671        -0.49839
C          9.84082         4.15842        -0.04885
C          8.59854         6.32049         0.03238
C          8.52907         7.73286         0.36310
C          9.81570         5.56860         0.24980
C          9.67520         8.35102         1.09474
C          8.47617        10.53492         1.15825
C          8.49779        11.99207         1.23551
C          9.81356         9.85711         0.94811
C          9.63755        12.63247         1.91312
C          8.25264        14.79792         1.81031
C          8.10834        16.26200         1.85139
C          9.55711        14.11766         2.23175
C          9.97191        17.27647         2.22588
C          8.66279        19.18285         1.25040
C          9.94581        18.59595         1.61012
C         11.09195         2.00227        -0.20250
C         11.06669         3.43125         0.03757
C         12.32852         1.29401        -0.12586
C         12.26028         4.14574         0.22049
C         11.00470         6.18924         0.71031
C         10.93582         7.56227         1.26345
C         12.25689         5.52022         0.58598
C         12.20752         8.29912         1.57379
C         10.98144        10.52805         1.65546
C         10.92507        11.87562         1.98076
C         12.21845         9.77550         1.67021
C         12.14174        12.58630         2.45323
C         10.86197        14.91167         2.46585
C         10.98736        16.37254         2.09695
C         12.13466        14.10902         2.61273
C         12.27449        16.95026         1.64095
C         11.16716        19.18137         1.33266
C         12.38787        18.43360         1.52835
C         13.55726         1.97278        -0.06876
C         13.51400         3.44925        -0.09798
C         14.81484         1.33494        -0.05269
C         14.80089         4.21272         0.04259
C         13.52049         6.20894         0.79910
C         13.52468         7.58940         1.34554
C         14.74287         5.59741         0.55629
C         14.75074         8.40458         1.19638
C         13.44666        10.43449         1.75541
C         13.45023        11.84491         2.19399
C         14.70494         9.79825         1.45763
C         14.66537        12.63232         1.85158
C         13.49674        14.84652         2.65148
C         13.52815        16.18695         1.89933
C         14.67973        14.08899         2.07512
C         14.78969        16.93241         2.14503
C         13.61903        19.04871         1.58590
C         14.87283        18.37507         1.90003
C         16.03987         2.05100         0.04731
C         16.04013         3.43702         0.17109
C         17.35953         1.28975        -0.02080
C         17.28494         4.21733         0.22019
C         15.99097         6.31257         0.71343
C         15.95398         7.71478         0.91435
C         17.24595         5.65080         0.53895
C         17.19932         8.46827         0.70650
C         15.92237        10.60120         1.37645
C         15.95101        11.95438         1.62022
C         17.16970         9.95893         0.90827
C         17.14174        12.83754         1.23621
C         15.98549        14.77525         2.28736
C         15.81687        16.17107         2.65686
C         17.19363        14.20645         1.95921
C         17.69012        17.32226         2.39930
C         16.03499        19.12374         1.84715
C         17.48502        18.79688         2.22813
C         18.49296         1.98344         0.77034
C         18.58186         3.46433         0.42124
C         19.84169         1.32264         0.59844
C         19.74763         4.22538         0.87984
C         18.47883         6.34099         0.71526
C         18.48325         7.75628         0.80175
C         19.73312         5.61975         0.84901
C         19.68419         8.49777         0.89537
C         18.44767        10.66792         1.10955
C         18.44727        12.06660         1.25671
C         19.65947         9.93653         0.99477
C         19.65500        12.77968         1.14320
C         18.48485        15.00039         1.84838
C         18.51323        16.50984         1.68904
C         19.66955        14.27019         1.28807
C         19.81985        17.22164         1.32789
C         18.49452        19.35902         1.25933
C         19.60375        18.65199         0.86158
C         21.01774         2.00556         0.80780
C         20.97215         3.46104         1.14225
C         22.30252         1.35877         0.75970
C         22.26288         4.25151         1.11830
C         20.96626         6.37799         0.92387
C         20.93679         7.80143         0.88157
C         22.21725         5.71497         0.93719
C         22.15860         8.53511         0.76616
C         20.88494        10.65826         0.91029
C         20.86702        12.09080         0.92685
C         22.09637         9.94559         0.70108
C         22.09207        12.81509         0.64667
C         20.68189        14.95044         0.37211
C         20.78566        16.45886         0.46267
C         22.04606        14.29953         0.55180
C         21.83314        17.12319        -0.10196
C         20.67005        19.28024         0.14379
C         21.84066        18.58497        -0.21530
C         23.51969         2.05627         0.74766
C         23.48442         3.53169         0.66412
C         24.79099         1.44160         0.71903
C         24.78179         4.30441         0.66912
C         23.43034         6.44193         0.87595
C         23.42609         7.84748         0.73898
C         24.71682         5.73997         1.05462
C         24.66893         8.55240         0.54525
C         23.27289        10.68418         0.25174
C         23.24538        12.14601         0.33225
C         24.60437         9.95510         0.11053
C         24.44418        12.82563        -0.21515
C         23.19807        15.03723        -0.02787
C         22.98771        16.36820        -0.72480
C         24.40950        14.28336        -0.45729
C         24.31167        17.15427        -0.60207
C         22.96072        19.24651        -0.76934
C         24.18514        18.58183        -1.08750
C         26.00426         2.17774         0.76729
C         26.03882         3.56921         0.81219
C         27.31042         1.42139         0.89507
C         27.33501         4.32653         1.07289
C         26.02794         6.52319         0.96685
C         25.92692         7.94393         0.60383
C         27.25377         5.78719         0.65979
C         27.13254         8.63547         0.20684
C         25.86033        10.72374         0.07222
C         25.77298        12.18460         0.00260
C         27.08054        10.07459         0.01070
C         27.01652        12.96818        -0.33691
C         25.63750        15.05035        -0.78469
C         25.49981        16.36189        -1.13842
C         26.90209        14.33310        -0.94046
C         26.55318        17.01915        -1.94467
C         25.28349        19.23766        -1.60500
C         26.45568        18.50162        -2.13483
C         28.45248         2.20565         0.28909
C         28.45994         3.60429         0.37308
C         29.51264         1.53311        -0.34495
C         29.54301         4.34481        -0.17692
C         28.37980         6.49077         0.20022
C         28.34045         7.94355         0.03382
C         29.56730         5.77083        -0.11361
C         29.54648         8.66268        -0.35338
C         28.28953        10.81960        -0.32078
C         28.23793        12.18243        -0.55443
C         29.53187        10.08168        -0.51887
C         29.46685        13.02116        -0.75506
C         27.97530        14.93360        -1.52197
C         27.87271        16.27391        -2.23543
C         29.25971        14.17149        -1.74985
C         29.09547        17.14161        -1.95620
C         27.72812        19.25611        -2.48500
C         29.00164        18.54698        -2.03275
C         30.56711         2.24712        -0.91511
C         30.60003         3.64648        -0.84149
C         31.63459         4.41893        -1.50736
C         30.88226         6.47168        -0.31180
C         30.76351         7.95971        -0.55375
C         31.73946         5.75288        -1.33215
C         31.92456         8.66789        -0.88024
C         30.71631        10.78180        -0.89833
C         30.70591        12.22946        -1.11081
C         31.90415        10.04802        -1.06485
C         31.77899        12.96914        -1.53137
C         30.49444        15.06407        -1.69222
C         30.35356        16.52140        -1.71966
C         31.69581        14.40918        -1.65550
C         31.47595        17.33995        -1.47222
C         30.14294        19.32733        -1.78755
C         31.36611        18.72587        -1.48882
O          2.59610        10.30171         0.32269
O         24.17907        13.32984        -1.57319
O         17.08212         9.39491        -0.44831
O         23.75844        10.19030        -1.06723
O         25.42754         6.11116         2.27134
O          7.49502         9.88168         2.03673
O          7.18808         4.09142        -2.35799
O         26.53028        12.88047         1.05693
O         22.97093        15.03114         1.41254
O          7.03420        14.14157         2.32116
O          9.30523        13.17250         3.28774
O         26.00123        17.57382        -3.20865
O         14.16844         4.04300        -1.28285
O         14.40807        13.60194         0.71918
O         12.93122         7.67562         2.69104
O         16.84084        16.77632         3.36834
O         21.69647         3.78828         2.38305
O         18.17231         3.84704        -0.92862
O         24.02903         4.06544        -0.58206
O         12.95619        16.18493         0.56335
O         11.37773        14.55443         3.78788
O          8.79650        16.89687         2.88793
O         12.90825        11.98719         3.54530
O          9.96313         7.74300         2.36946
O         19.64214        14.61507         2.71146
O          6.77374         8.24792        -2.22939
H          7.48740         7.61511        -2.46184
O         29.70061        13.65428         0.54036
H         29.68036        12.95805         1.22987
O         24.54014        17.26799         0.82905
H         25.26467        17.90875         0.98245
O         17.74610         1.15622        -1.39082
H         17.85540         2.06722        -1.75162
O         27.59669         4.30640         2.51496
H         26.90586         4.87566         2.92926
O         13.82282        15.11067         4.02598
H         12.97960        15.08173         4.53951
O         20.52321        17.32799         2.60780
H         20.60507        16.41099         2.96340
O         27.62664        20.56288        -1.92317
H         28.30412        21.13853        -2.32955
O         10.10479        10.03525        -0.48143
H         10.19901        10.99628        -0.65887
O         31.60311         6.34760         0.97109
H         31.62903         5.39363         1.19940
O          3.17490        12.72732         0.80806
H          2.57972        11.99150         1.08998
O         22.68966        16.07924        -2.10731
H         22.78607        16.90461        -2.62772
O          4.23459        17.49622        -3.57178
H          4.26524        16.64328        -4.05590
O         27.21368         0.11865         0.31958
H         26.97807         0.21623        -0.62556
O          2.06181         4.21402         0.04708
H          1.97553         3.25548         0.23788
O         20.24373        14.63654        -0.97551
H         20.91461        14.98841        -1.60637
O         17.70269        19.45771         3.50884
H         17.28875        18.88838         4.19328
O         18.12316         1.89972         2.17597
H         18.90641         2.13593         2.71678
O          6.55816        17.34327        -2.14778
H          5.95636        17.68027        -2.85809
O          8.25484        12.92428        -0.94236
H          8.11215        12.11354        -1.47637
O         29.17122        13.59535        -3.07404
H         28.82082        14.29967        -3.67120
O         16.94483        13.18467        -0.16634
H         16.00268        13.47214        -0.26226
O         27.90636        15.96315        -3.66150
H         27.17037        16.47851        -4.07637
H          0.64977         1.77049        -2.85463
H          0.50318         4.17333        -2.41841
H          2.66447         0.45400        -2.20729
H          0.50562         6.06349        -2.09281
H          0.54078         8.51121        -2.07545
H          0.69599        10.49137        -2.35379
H          1.02434        12.84647        -2.65276
H          1.15506        14.74321        -2.76045
H          1.48454        17.11285        -3.12895
H          2.39619        19.14222        -1.95827
H          4.99708         0.35314        -1.49019
H          4.00546        20.18805        -0.43995
H          7.46202         0.31061        -1.06836
H          6.20255        20.21445         0.63674
H          9.88383         0.25675        -0.64622
H          8.65702        20.27041         1.07131
H         12.31732         0.19545        -0.18832
H         11.22231        20.20604         0.93576
H         14.85145         0.23617        -0.10061
H         13.65809        20.14221         1.45935
H         17.21586         0.25821         0.38782
H         15.89933        20.18843         1.58999
H         19.87236         0.24855         0.36083
H         18.39406        20.41792         0.97301
H         22.32137         0.26116         0.68309
H         20.59916        20.35880        -0.06672
H         24.85603         0.34379         0.74646
H         22.89242        20.33012        -0.95364
H         27.52389         1.27393         1.98917
H         25.23751        20.32026        -1.79711
H         29.49124         0.43547        -0.39815
H         27.78398        19.35103        -3.60996
H         31.37798         1.71305        -1.43102
H         32.32192         3.88855        -2.18379
H         32.53357         6.31036        -1.84939
H         32.87855         8.13327        -0.98317
H         32.83742        10.56205        -1.33067
H         32.75140        12.49849        -1.73825
H         32.64536        14.96062        -1.72700
H         32.45099        16.88372        -1.25548
H         30.07695        20.42380        -1.82779
H         32.24736        19.35000        -1.28634
