         621
 CSIRO Nanostructure Databank - Neutral Graphene Oxide Data Set
C          6.03492        32.18413         0.14284
C          6.03312        33.54365        -0.06610
C          8.29037        27.89545         1.14761
C          8.42880        29.23500         0.81282
C          7.24665        30.04860         0.58130
C          8.41760        32.22460         0.83548
C          7.21642        31.43131         0.49116
C          8.40797        33.73078         0.63370
C          7.21252        34.36590         0.05036
C          8.55134        36.41721        -0.37214
C          7.30259        35.68678        -0.34770
C          8.58171        37.75722        -0.77119
C         11.16043        23.82349         1.97486
C         11.12075        25.18178         1.63702
C          9.84487        25.90453         1.86837
C         11.23831        27.96353         0.56077
C          9.40233        26.94219         1.09359
C         11.09412        29.35175         0.69792
C          9.74433        29.97313         0.87588
C         10.95104        32.26405         0.72206
C          9.71323        31.46885         0.91762
C         10.84401        33.62283         0.86596
C          9.70191        34.44253         0.51199
C         11.03548        36.36296        -0.59185
C          9.78826        35.72241        -0.02575
C         11.05654        37.81282        -0.92639
C          9.78247        38.51624        -0.97703
C         10.95279        40.63144        -1.52885
C          9.76333        39.88883        -1.25471
C         10.95817        42.00932        -1.69987
C         13.61477        19.54883         2.53233
C         13.54544        20.89914         2.10526
C         12.35831        21.66524         2.19515
C         13.49986        23.61457         1.22292
C         12.32769        23.02174         1.80674
C         13.53235        25.03428         0.99563
C         12.34992        25.81571         1.22046
C         13.46469        28.09663         1.32206
C         12.36556        27.26909         1.04190
C         13.52230        29.45175         0.94941
C         12.28508        30.11511         0.79364
C         13.53614        32.19085        -0.02071
C         12.24109        31.56017         0.44095
C         13.68265        33.65154        -0.26968
C         12.72635        34.51951         0.11944
C         13.59797        36.46424        -1.02865
C         12.39025        35.72470        -0.64413
C         13.54033        37.80831        -1.26160
C         12.23815        38.46143        -1.24080
C         13.48063        40.60151        -1.42903
C         12.22058        39.85298        -1.81886
C         13.43962        42.09009        -1.47535
C         12.17219        42.77394        -1.85646
C         13.38309        44.89681        -2.36910
C         12.17629        44.09910        -2.24381
C         13.37620        46.24081        -2.59893
C         16.09048        15.29110         2.95703
C         16.06314        16.69065         2.84874
C         14.87820        17.44885         2.85760
C         16.02688        19.51586         2.08647
C         14.83457        18.83976         2.52265
C         15.96560        20.79345         1.50308
C         14.71602        21.50189         1.52659
C         15.77603        23.29665         0.19413
C         14.66052        22.81990         1.03672
C         15.71963        24.74538        -0.25690
C         14.76809        25.57768         0.48409
C         16.06057        27.63982        -0.05804
C         15.18991        26.90715         0.73808
C         15.88046        29.09428        -0.32420
C         14.74949        29.95637         0.22859
C         16.06836        32.06630        -0.52985
C         14.84629        31.45422         0.08740
C         15.99542        33.36017        -1.31174
C         14.72816        34.16490        -1.19169
C         16.06613        36.35973        -1.51604
C         14.77238        35.65847        -1.41132
C         16.05752        37.75492        -1.40269
C         14.80651        38.51398        -1.46329
C         16.01566        40.66612        -1.60546
C         14.78835        39.89512        -1.55034
C         15.99912        42.05625        -1.69675
C         14.73441        42.82105        -1.61019
C         15.93187        44.86526        -2.62982
C         14.68705        44.23557        -2.08894
C         15.94147        46.36975        -2.73474
C         14.60379        47.12172        -2.77342
C         15.76657        48.89760        -1.42531
C         14.59812        48.32408        -1.88542
C         15.71670        50.19384        -0.83603
C         18.46197        10.95013         3.15323
C         18.47178        12.36927         3.05228
C         17.28391        13.14264         3.05925
C         18.57667        15.22348         2.77171
C         17.31087        14.54860         2.95120
C         18.60081        16.64076         2.51659
C         17.35475        17.40045         2.73935
C         18.52553        19.41723         1.68168
C         17.32672        18.86200         2.31285
C         18.45983        20.81906         1.24599
C         17.15531        21.44964         1.00079
C         18.27202        23.27963        -0.28735
C         17.10518        22.65457         0.28485
C         18.16220        24.51705        -1.17550
C         16.93657        25.38769        -0.87366
C         18.31726        27.55586        -1.18004
C         17.02946        26.87695        -0.88494
C         18.32278        28.92597        -1.19021
C         17.04341        29.75256        -1.10526
C         18.44686        31.83489        -1.11206
C         17.26362        31.21761        -0.74588
C         18.55355        33.23828        -1.70517
C         17.26397        34.05945        -1.75622
C         18.48929        36.24543        -1.56720
C         17.28536        35.57675        -1.63545
C         18.64056        37.68826        -1.26452
C         17.30621        38.51775        -1.15595
C         18.40511        40.79996        -1.20230
C         17.26724        39.98841        -1.35242
C         18.54553        42.08687        -1.76014
C         17.27029        42.87947        -1.62108
C         18.53434        44.86209        -2.55770
C         17.22970        44.10998        -2.50191
C         18.43788        46.31336        -2.23209
C         17.19153        47.01545        -2.23747
C         18.17705        48.81217        -0.83787
C         17.06648        48.23624        -1.53395
C         18.03147        50.00477        -0.04333
C         16.79920        50.78020        -0.17446
C         17.41976        52.75257         1.19667
C         16.68518        52.17573         0.15532
C         17.84063        54.06548         1.42498
C         20.71019         6.48213         3.16474
C         20.81739         7.99274         3.14977
C         19.64462         8.74346         3.17702
C         20.91255        10.82327         3.03684
C         19.65316        10.17446         3.11509
C         20.95947        12.28709         3.08869
C         19.72291        13.06551         2.96629
C         21.07456        15.14416         2.57203
C         19.77505        14.46178         2.79831
C         21.04284        16.60570         2.11001
C         19.74378        17.30836         2.07012
C         20.84497        19.23182         0.88361
C         19.70748        18.68196         1.59641
C         20.83090        20.54037         0.34278
C         19.67621        21.42482         0.57641
C         20.70244        23.20034        -0.84061
C         19.52645        22.64753        -0.23725
C         20.67559        24.57664        -1.29286
C         19.46823        25.32554        -1.23208
C         20.71752        27.35954        -1.85119
C         19.50220        26.73000        -1.44509
C         20.71195        28.81589        -2.16512
C         19.46501        29.64798        -1.78317
C         20.22807        32.02652        -2.59370
C         19.55264        31.09632        -1.60970
C         20.93533        33.26312        -2.05077
C         19.81627        34.03801        -1.45210
C         20.83831        36.12521        -2.45079
C         19.75946        35.49780        -1.65032
C         20.91135        37.58136        -2.38970
C         19.93290        38.31617        -1.70347
C         21.10784        40.44533        -2.32491
C         20.22287        39.68559        -1.52290
C         21.10323        41.95587        -2.26327
C         19.81163        42.71000        -2.05819
C         21.01922        44.89056        -2.39894
C         19.79171        44.10064        -2.29664
C         20.89843        46.29757        -1.80308
C         19.55258        46.90239        -1.59414
C         20.60710        48.72096        -0.30050
C         19.44502        48.14840        -0.92534
C         20.44714        49.86029         0.50162
C         19.16279        50.44446         0.71949
C         20.16161        52.22969         2.23233
C         19.07577        51.48947         1.69953
C         20.07897        53.59709         2.60650
C         18.93697        54.44391         2.27169
C         20.06272        56.39862         3.30991
C         18.97287        55.80557         2.63396
C         20.02411        57.74632         3.71839
C         23.24248         3.63645         3.29417
C         22.03723         4.36784         3.33794
C         23.26558         6.43608         3.00158
C         22.03492         5.75175         3.18429
C         23.30806         7.86997         2.92445
C         22.08468         8.62961         3.04722
C         23.35545        10.70674         2.73609
C         22.12351        10.06521         2.97473
C         23.35227        12.07333         2.21384
C         22.26787        12.97403         2.65338
C         23.36200        14.92222         1.54461
C         22.24831        14.35120         2.17241
C         23.28126        16.28432         1.05311
C         22.13817        17.04841         1.23600
C         23.24228        18.98478        -0.02220
C         21.95066        18.33099         0.54031
C         23.23722        20.45582        -0.08656
C         21.95997        21.14848        -0.26265
C         23.16606        23.06179        -1.28361
C         21.94868        22.48350        -0.78210
C         23.11082        24.37229        -2.04802
C         21.88101        25.20440        -1.71485
C         23.17358        27.05696        -2.66733
C         21.88243        26.56760        -2.04183
C         23.07817        29.09402        -1.49413
C         21.99194        29.56873        -2.21832
C         23.22419        31.66442        -2.63560
C         22.12934        30.84593        -2.88681
C         23.25382        33.12047        -2.96967
C         22.02870        33.86358        -2.62066
C         23.30786        36.07555        -3.07354
C         22.05406        35.32735        -2.84180
C         23.13193        37.42048        -3.43407
C         21.99015        38.22260        -3.04396
C         23.81742        40.63900        -3.08847
C         21.93488        39.64299        -3.15708
C         23.61218        42.04744        -2.68825
C         22.26801        42.66397        -2.49214
C         23.44724        44.76148        -1.60693
C         22.37067        44.19124        -2.55279
C         23.31668        46.10336        -1.00517
C         22.04852        46.82588        -1.03662
C         22.97992        48.52426         0.50139
C         21.87514        48.00764        -0.33484
C         22.94564        50.00217         0.81273
C         21.57604        50.32897         1.34945
C         22.64394        52.07335         2.99321
C         21.43114        51.47741         2.29956
C         22.51849        53.55062         3.25237
C         21.27529        54.23859         3.14403
C         22.38036        56.22613         4.13471
C         21.24656        55.61037         3.52667
C         22.32184        57.58508         4.56658
C         21.13196        58.35374         4.35733
C         22.21424        60.27540         5.40295
C         21.10365        59.70624         4.78435
C         24.44639         4.27996         3.08227
C         25.71472         6.36876         2.70019
C         24.49026         5.69571         2.93540
C         25.76984         7.77021         2.58793
C         24.55631         8.50926         2.77448
C         25.91435        10.65464         2.29694
C         24.61264         9.97136         2.77088
C         25.86991        12.00774         1.73530
C         24.59598        12.72068         1.65995
C         25.78551        14.73187         0.94942
C         24.59725        14.16851         1.39836
C         25.75870        16.06936         0.33856
C         24.45087        16.83576         0.31847
C         25.70575        18.93512        -0.26656
C         24.51022        18.29182         0.09733
C         25.71000        20.27051        -0.71792
C         24.54074        21.11696        -0.51476
C         25.62844        23.01668        -1.63998
C         24.41255        22.41046        -1.20591
C         25.61052        24.43513        -1.80877
C         24.41980        25.13894        -1.89097
C         25.57866        27.30295        -1.62864
C         24.44294        26.57735        -1.97409
C         25.61022        28.77183        -1.38640
C         24.41671        29.54512        -1.84774
C         25.65235        31.77989        -1.81648
C         24.48385        30.99540        -2.30377
C         25.60399        33.29955        -1.95961
C         24.55224        33.91964        -2.86941
C         25.78629        36.10573        -2.52849
C         24.57387        35.43205        -2.85440
C         25.90436        37.55926        -2.43968
C         25.00398        38.44353        -3.05106
C         25.84715        40.37145        -1.72652
C         24.83950        39.82266        -2.65969
C         25.84488        41.83120        -1.44710
C         24.77581        42.71780        -2.01513
C         25.70893        44.55684        -0.49135
C         24.58089        44.03963        -1.37284
C         25.80971        46.07871        -0.61521
C         24.43040        46.66683        -0.39890
C         25.52893        48.61315         0.85016
C         24.31713        47.85602         0.44189
C         25.39898        49.88377         1.41342
C         24.11574        50.51207         1.62252
C         25.12449        52.37995         2.89076
C         23.98310        51.66609         2.38822
C         24.96786        53.52137         3.68993
C         23.66443        54.16637         3.78800
C         24.69194        56.07833         5.00321
C         23.58389        55.48911         4.31210
C         24.62142        57.38704         5.43002
C         23.45072        58.17988         5.19996
C         23.37687        59.52938         5.61464
C         26.99268         8.43379         2.21420
C         28.24008        10.46228         1.47272
C         27.07463         9.80264         1.96337
C         28.26488        11.84432         1.22032
C         27.04100        12.61731         1.29862
C         28.23565        14.65558         0.55251
C         27.02996        14.00772         0.91253
C         28.24021        16.07449         0.20819
C         27.03986        16.77344         0.16792
C         28.26269        18.85283        -0.59687
C         27.00007        18.21879        -0.09642
C         28.15166        20.05769        -1.47258
C         26.85497        20.82873        -1.46394
C         28.09273        22.95295        -1.90367
C         26.88878        22.30068        -1.68728
C         28.12901        24.45660        -2.11417
C         26.88915        25.13240        -1.56014
C         28.14954        27.37555        -1.40346
C         26.86524        26.62592        -1.32608
C         28.19283        28.77677        -1.46685
C         26.91324        29.51355        -1.32210
C         28.19058        31.73703        -1.63138
C         26.91238        31.02686        -1.45448
C         28.19058        33.16479        -1.78705
C         26.96138        33.93698        -2.04166
C         28.12266        35.95296        -1.42525
C         26.95772        35.31570        -2.13759
C         28.18878        37.44364        -1.43003
C         27.05804        38.19890        -1.76762
C         28.24562        40.25230        -1.00624
C         27.08992        39.60338        -1.54567
C         28.30098        41.67749        -0.78860
C         27.14243        42.49798        -1.15413
C         28.23338        44.54901        -0.08231
C         27.07535        43.94801        -0.77745
C         28.10856        45.84419         0.41894
C         26.89059        46.61647         0.30616
C         27.85266        48.41250         1.75176
C         26.77486        47.88214         0.87208
C         27.90838        49.88124         1.98021
C         26.61923        50.63635         1.80256
C         27.66722        52.49281         3.29968
C         26.47034        51.95652         2.48673
C         27.34663        53.50048         4.31511
C         26.10477        54.07915         4.38762
C         25.87234        55.20719         5.37139
C         29.45492        12.54485         0.85274
C         30.79407        14.58412         0.37683
C         29.45608        13.90326         0.57160
C         30.72848        16.01069        -0.12074
C         29.49042        16.72565        -0.17510
C         30.69905        18.71606        -1.03087
C         29.49665        18.04694        -0.67219
C         30.71274        20.08513        -1.48642
C         29.42927        20.73543        -1.86956
C         30.67044        22.98816        -2.16780
C         29.36808        22.22995        -2.13657
C         30.70064        24.43541        -1.91781
C         29.40929        25.10716        -1.60108
C         30.70584        27.31337        -1.37644
C         29.39798        26.57925        -1.29334
C         30.67800        28.79992        -1.50190
C         29.39469        29.53318        -1.53712
C         30.64130        31.66120        -1.77728
C         29.41603        30.97867        -1.64428
C         30.70849        33.12822        -2.07827
C         29.41387        33.83738        -1.82228
C         30.58106        35.79014        -0.80679
C         29.47200        35.32547        -1.80461
C         30.56457        37.29183        -0.72704
C         29.37693        38.04912        -0.90216
C         30.50015        40.10155         0.00169
C         29.37494        39.46317        -0.68461
C         30.58571        41.55886         0.04982
C         29.46438        42.33709        -0.29477
C         30.57998        44.33569         0.63193
C         29.45798        43.77442         0.02662
C         30.57370        45.71592         1.13285
C         29.29457        46.48141         1.02506
C         30.35066        48.32006         2.44251
C         29.12052        47.65054         1.92536
C         30.21594        49.65300         2.92905
C         29.02128        50.42017         2.81398
C         28.87299        51.65855         3.42717
C         31.91082        16.65658        -0.43568
C         33.14876        18.74429        -0.93615
C         31.94033        18.02890        -0.83454
C         33.15391        20.13207        -1.20361
C         31.91730        20.78378        -1.56487
C         33.16880        23.00519        -1.58106
C         31.98114        22.21661        -1.95115
C         33.15586        24.41190        -1.68539
C         31.89969        25.11255        -1.85757
C         33.19486        27.32119        -1.73788
C         31.89054        26.61543        -2.04491
C         33.19618        28.72103        -1.77939
C         31.92363        29.46125        -2.00053
C         33.18430        31.68570        -1.78341
C         31.91649        30.96034        -1.98874
C         33.18949        33.05513        -1.48865
C         31.94617        33.80230        -1.48912
C         33.13647        35.79722        -0.72238
C         31.92274        35.13780        -1.11572
C         33.14410        37.25888        -0.50665
C         31.83096        37.99852        -0.51417
C         33.04979        39.99579         0.50159
C         31.77918        39.31050         0.17741
C         33.05398        41.35848         0.73627
C         31.88067        42.16555         0.34922
C         33.00983        44.21268         1.46176
C         31.87779        43.65446         0.67294
C         32.87028        45.43250         2.10198
C         31.51721        46.08316         2.27324
C         31.51754        47.57448         2.52959
C         34.34589        20.88679        -1.08946
C         35.52306        23.04749        -0.92072
C         34.35867        22.30330        -1.19686
C         35.52622        24.45399        -1.02011
C         34.35465        25.15993        -1.42172
C         35.63092        27.31451        -1.30771
C         34.40027        26.59895        -1.50396
C         35.62903        28.73647        -1.54313
C         34.41513        29.43687        -1.73530
C         35.73619        31.64681        -1.36100
C         34.42609        30.91267        -1.86238
C         35.58117        32.98480        -0.83246
C         34.40017        33.70356        -0.99838
C         35.54070        35.80224        -0.19853
C         34.33886        35.10177        -0.60850
C         35.52876        37.13182         0.21282
C         34.29920        37.88797         0.17890
C         35.36846        39.78049         1.45094
C         34.23634        39.19187         0.64617
C         35.40675        41.28493         1.42378
C         34.26221        42.04871         1.18612
C         34.20974        43.43981         1.50508
C         36.66867        25.20069        -0.61201
C         37.89541        27.20287        -0.05794
C         36.75485        26.57982        -0.73445
C         38.44999        28.37879        -0.47147
C         36.84954        29.51249        -1.45564
C         38.09538        31.44800        -0.41024
C         36.91330        30.82571        -1.00852
C         38.03381        32.81026        -0.09576
C         36.70898        33.55000        -0.00596
C         38.07941        35.74353         0.21413
C         36.81405        35.04789        -0.24136
C         37.98074        37.12907         0.64662
C         36.75226        37.81866         0.65114
C         36.67832        39.12903         1.14199
C         39.34335        29.29138         0.18519
C         40.35554        31.40438         0.66821
C         39.26002        30.67391         0.06129
C         40.34250        32.74998         0.82577
C         39.17530        33.51809         0.45883
C         39.17889        34.88390         0.66203
O         29.38623        25.56109        -0.21502
O         32.27165        43.18710        -0.65243
O         17.82313        51.80952         2.18359
O         17.52238        18.46977         3.72411
O         24.10466        33.39876        -4.13980
O         27.33254        52.98256         1.94017
O         13.34177        41.36314        -0.19298
O          9.78480        30.69578         2.18166
O         27.64432        50.62350         0.74957
O         15.92038        45.51645        -3.92880
O         23.23012        27.50364        -3.79976
O         27.37952        43.56840        -2.14441
O         10.21231        27.23571        -0.03332
O         24.63933        42.80322        -3.45530
O         25.32499        40.92194        -0.42870
O         23.37808        47.65564         1.59453
O         26.18385        29.10301        -0.09219
O         26.00143        31.53265        -0.40999
O         14.62808        27.54767         1.85318
O         16.50178        26.14857        -2.06303
O         26.87967        25.65429        -0.20655
O         17.94342        44.19782        -3.75283
O         24.88910        16.07883        -0.86894
O         20.97875        35.63202        -3.82009
O         19.01153        32.75527        -3.09016
O         31.85655        30.14965        -3.27676
O         21.42557        16.23943         3.47648
O         38.02872        28.83389        -1.73639
O         30.83555        39.37993         1.28267
O         35.39527        31.48398        -2.77741
O         28.06342        47.55333         2.93592
O         37.74023        35.49428        -1.24678
O         18.06824        38.06995         0.01039
O         27.23072        19.93613        -2.59059
O         15.78093        32.19269         0.92971
O         25.56762        10.58597         3.72591
O         21.93271        12.82695         4.05878
O         27.86444        19.04095         0.80339
O         24.20189        38.01828        -4.12370
O         19.52199        40.31724        -0.51057
O         11.44831        35.52557        -1.76622
O         23.58872        12.05066         0.75669
O         15.23690        23.68124        -1.12092
O         21.01073        31.37346        -3.56746
O         22.27508        18.32506        -0.88860
O         21.29087        50.07031         2.75421
O         30.99194        28.11941        -0.20765
O         32.70561        38.01213        -1.70562
O         11.99631        34.29609         1.27500
O         12.61065        31.63967        -1.01650
O         14.33371        34.71792        -2.47618
O         19.75488        29.20052        -3.15881
O         19.40464        21.67214         2.00118
O         24.69222        29.88828        -3.24633
O         24.09325        21.11196         0.89656
O         31.49692        22.56778        -3.29282
O          8.19306        33.13236         1.96268
O         14.64327        29.33864        -1.11574
O         22.86560        40.21538        -4.03294
O         30.40435        46.72116         0.08355
O         29.33802        21.24790        -3.22794
O         14.82137        43.96560        -0.64144
O         20.11686        34.89697        -0.32818
O         16.39460        33.37488        -2.70456
O         21.02099        46.07711        -3.25821
O         22.92139        28.33992        -0.36989
H         23.79410        28.13588         0.02917
O         30.93788        45.45606         3.47830
H         30.20079        46.02323         3.79344
O         28.08435        24.69045        -3.55020
H         28.58397        23.97897        -4.00527
O         31.64055        13.79982        -0.47646
H         31.24225        13.78186        -1.37066
O         17.36396        43.42189        -0.25115
H         16.44414        43.66148         0.03162
O         22.98834        24.01402        -3.46232
H         22.97757        24.84456        -3.98595
O         26.21599        46.36536        -1.97384
H         26.51279        47.29669        -2.02925
O         31.63740        26.81179        -3.47324
H         32.35485        26.37463        -3.97892
O         17.98958        24.00902        -2.52475
H         17.49131        24.69633        -3.02505
O         36.31318        33.43900         1.40519
H         36.25127        32.48761         1.63292
O         27.83200        35.61205        -0.01463
H         26.90441        35.87632         0.16718
O         30.91070        33.23460        -3.55561
H         31.49745        32.49636        -3.83624
O         23.01068        50.70787        -0.46511
H         23.94283        50.72161        -0.76940
O         35.06135        39.42645         2.87221
H         34.13115        39.68959         3.04365
O         14.48675        47.66631        -4.12812
H         14.82054        46.96588        -4.73477
O         22.82300        44.46463        -3.89625
H         22.50858        45.36655        -4.13509
O         25.41110        44.20908         0.87738
H         24.60133        44.68815         1.15510
O         25.07114        33.78978        -0.67117
H         25.53412        33.27521         0.03332
O         19.88711         6.05415         4.26175
H         20.33536         6.30398         5.09556
O         30.32320        35.29055         0.53344
H         29.38461        35.49400         0.76838
O         16.64499        29.84822        -2.49501
H         15.65899        29.80440        -2.53703
O         29.84593        35.81460        -3.10792
H         30.32319        35.09647        -3.58681
O         12.29642        39.69909        -3.26988
H         11.59723        39.07039        -3.54808
O         22.69991        51.48664         4.33165
H         22.38340        50.55646         4.24102
O         27.05751        55.98437         5.54742
H         27.32577        56.33770         4.67464
H          5.10015        31.62416        -0.01196
H          5.09890        34.02943        -0.38596
H          7.27252        27.51132         1.33078
H          6.30113        29.50422         0.42453
H          6.40687        36.19486        -0.73801
H          7.62194        38.26498        -0.95497
H         10.25395        23.34578         2.37629
H          9.22409        25.54988         2.70539
H          8.80440        40.42865        -1.21140
H         10.00159        42.55588        -1.68620
H         12.70450        19.05217         2.89952
H         11.45322        21.20633         2.62027
H         11.21871        44.59070        -2.47473
H         12.41168        46.74820        -2.75911
H         15.14225        14.74059         3.04871
H         13.92456        16.93529         3.05258
H         13.65008        48.86927        -1.76458
H         14.77242        50.75336        -0.90249
H         17.49538        10.43377         3.24682
H         16.31356        12.63337         3.15389
H         16.00994        52.79383        -0.45398
H         17.32746        54.87763         0.88890
H         20.16171         6.16946         2.23216
H         18.68013         8.22015         3.25252
H         18.10623        56.43567         2.38471
H         19.11311        58.33668         3.53895
H         23.21573         2.54467         3.41610
H         21.08431         3.84298         3.49367
H         22.17613        61.32384         5.73025
H         20.19455        60.30296         4.62250
H         25.38366         3.70750         3.03238
H         26.63679         5.77890         2.58904
H         25.47539        57.82815         5.96528
H         24.24451        59.99059         6.10774
H         27.88059         7.80649         2.04134
H         29.15308         9.87076         1.30622
H         28.13861        53.83775         5.00150
H         25.64362        54.74886         6.37602
H         30.40999        11.99923         0.82975
H         31.30473        14.60015         1.38132
H         31.07661        50.11155         3.43885
H         29.66813        52.01723         4.09870
H         32.86161        16.11255        -0.33651
H         34.09938        18.23475        -0.72072
H         33.71804        45.83925         2.67501
H         32.42360        48.03630         2.95092
H         35.27843        20.36800        -0.82364
H         36.43967        22.52648        -0.60831
H         36.31323        41.78050         1.80404
H         35.10276        43.89437         1.96082
H         37.51018        24.65398        -0.16156
H         38.27483        26.70302         0.84539
H         38.85950        37.59899         1.11368
H         37.60473        39.64301         1.44004
H         40.13896        28.88153         0.82753
H         41.23318        30.82384         0.98839
H         41.20641        33.27555         1.25683
H         40.05256        35.35568         1.13697
