         615
 CSIRO Nanostructure Databank - Neutral Graphene Oxide Data Set
C          5.90918        31.65123        -0.20940
C          5.88958        33.01003        -0.04313
C          8.40065        27.39124        -0.67343
C          8.40046        28.78852        -0.72236
C          7.16472        29.53679        -0.59468
C          8.38562        31.67420        -0.39094
C          7.12115        30.90566        -0.44373
C          8.35841        33.18963        -0.34750
C          7.04001        33.88446        -0.17754
C          7.89763        36.23400        -0.24456
C          6.87681        35.23820         0.05506
C          8.31366        37.37050         0.37932
C         10.89071        23.09512        -0.68802
C         10.89160        24.51503        -0.80830
C          9.65079        25.25143        -0.76408
C         10.83496        27.38156        -1.17569
C          9.60105        26.63677        -0.84352
C         10.86933        28.84270        -0.97203
C          9.65121        29.50094        -0.82153
C         10.89897        31.63832        -0.43268
C          9.61817        31.00260        -0.98535
C         10.87004        33.09703        -0.81474
C          9.62932        33.86528        -0.72344
C         10.90188        35.98810        -0.61582
C          9.74521        35.22525        -0.97122
C         10.80426        37.41882        -0.31707
C          9.53351        38.11292        -0.02137
C         10.67220        40.33475        -0.03059
C          9.52203        39.47412         0.22092
C         10.76634        41.72235         0.44657
C         13.23068        18.84599         0.20960
C         13.25267        20.25723         0.00976
C         12.06596        20.96511        -0.27970
C         13.35435        23.04304        -0.46029
C         12.08999        22.35543        -0.51233
C         13.41114        24.43452        -1.02812
C         12.12167        25.19359        -0.88943
C         13.41499        27.37686        -1.05139
C         12.15180        26.62038        -1.19526
C         13.38335        28.77004        -1.08215
C         12.14952        29.52672        -1.02242
C         13.37018        31.67550        -0.68824
C         12.17327        30.94190        -0.87311
C         13.40227        33.08059        -0.48411
C         12.18806        33.85744        -0.79114
C         13.31906        35.92678        -0.07555
C         12.12644        35.29355        -0.48755
C         13.25133        37.35363         0.40900
C         12.00456        38.09655        -0.06980
C         13.20846        40.32812         0.34373
C         12.02234        39.55413        -0.10970
C         13.22434        41.80573         0.17358
C         11.93110        42.47860         0.38333
C         12.75454        44.84136         0.43706
C         11.86398        43.86987         0.84976
C         13.06047        46.15640         0.89996
C         15.58075        14.52753         0.75833
C         15.57043        15.88094         0.77061
C         14.27825        16.67252         0.87204
C         15.61301        18.86706         0.65143
C         14.38641        18.15141         0.52473
C         15.68016        20.26359         0.49627
C         14.48385        20.97348         0.17085
C         15.71443        23.18187         0.36728
C         14.50521        22.38396        -0.06189
C         15.85273        24.53000        -0.31063
C         14.65013        25.23705        -0.69101
C         15.92062        27.34312        -0.94448
C         14.63796        26.61867        -0.88998
C         15.92717        28.81658        -0.83041
C         14.67532        29.55855        -1.22579
C         15.90065        31.64105        -0.29316
C         14.61117        30.90093        -0.53031
C         15.86953        33.11376        -0.20092
C         14.58781        33.79457        -0.17720
C         15.77743        35.96865         0.20831
C         14.52745        35.21622        -0.01798
C         15.74912        37.44673         0.05356
C         14.54670        38.10514         0.16122
C         15.75023        40.32295         0.28233
C         14.51447        39.56319         0.39488
C         15.72818        41.69856         0.32527
C         14.48558        42.42233         0.17230
C         15.76157        44.59865         0.15981
C         14.64839        43.83128        -0.10194
C         15.64471        46.05213         0.61195
C         14.27953        46.83413         0.62010
C         15.22660        49.15666         0.42086
C         14.25346        48.22959         0.90238
C         15.67699        50.37991         0.88497
C         18.13117        10.22516         0.20907
C         18.10407        11.63793         0.38946
C         16.88755        12.31581         0.52997
C         18.16336        14.47398         0.84739
C         16.83963        13.73824         0.85703
C         18.14470        15.93784         0.56408
C         16.83679        16.64755         0.61322
C         18.15214        18.81518         1.04608
C         16.83652        18.10227         0.96414
C         18.17533        20.28130         0.81585
C         16.95829        20.98172         0.59986
C         18.21787        23.09002         0.55690
C         16.99891        22.38797         0.42705
C         18.29034        24.52044         0.23800
C         17.08603        25.15662        -0.28063
C         18.41111        27.31054        -0.27137
C         17.18278        26.56676        -0.69508
C         18.37877        28.79063        -0.34736
C         17.10636        29.50763        -0.61979
C         18.39622        31.64500        -0.60138
C         17.16375        30.93732        -0.55193
C         18.31084        33.12791        -0.68942
C         17.05696        33.80496        -0.27739
C         18.30888        36.03688        -0.27091
C         17.08920        35.24855         0.00441
C         18.22121        37.47704        -0.28229
C         17.00972        38.14375        -0.16237
C         18.19794        40.43141        -0.31847
C         16.95452        39.62368        -0.20611
C         18.29008        41.65956         0.59257
C         16.97596        42.46741         0.70065
C         18.24083        44.62747         0.57374
C         17.02953        43.92830         0.38940
C         18.18569        46.09691         0.66931
C         16.93876        46.76975         0.23608
C         18.20224        48.91102        -0.03790
C         17.02671        48.07570        -0.13297
C         18.12370        50.35322         0.03075
C         16.91868        51.03418         0.46412
C         18.16748        53.17689         0.54515
C         16.98163        52.42019         0.70079
C         18.18179        54.59230         0.73813
C         20.61863         5.97556         0.17876
C         20.52707         7.34388        -0.20121
C         19.35372         8.08401        -0.03362
C         20.55411        10.25507        -0.11280
C         19.33110         9.52160        -0.02032
C         20.59124        11.65011         0.14536
C         19.36964        12.36165         0.39324
C         20.64333        14.48248         0.49587
C         19.41413        13.75145         0.54999
C         20.66546        15.90751         0.63337
C         19.42489        16.67434         0.72988
C         20.67451        18.77680         0.99390
C         19.40481        18.03794         0.86066
C         20.69197        20.27479         1.08656
C         19.39593        20.98829         0.90690
C         20.65007        23.09434         1.35761
C         19.40997        22.38820         0.83925
C         20.60921        24.60820         1.11468
C         19.49992        25.18365         0.31412
C         20.91326        27.33730         0.08019
C         19.70875        26.52039        -0.37597
C         20.94615        28.75888        -0.37625
C         19.65617        29.51075        -0.62715
C         20.93068        31.69676        -0.74754
C         19.63200        30.98788        -0.64892
C         20.91064        33.23522        -0.74862
C         19.58014        33.94338        -0.75732
C         20.76628        36.11601        -0.24502
C         19.52740        35.38683        -0.41191
C         20.75287        37.50416        -0.27439
C         19.47618        38.17479        -0.78351
C         20.73264        40.42753        -0.32332
C         19.47476        39.69895        -0.60280
C         20.72232        41.83332         0.15542
C         19.54514        42.50489         0.37674
C         20.72610        44.67725         0.51549
C         19.52801        43.95631         0.55653
C         20.83989        46.18091         0.69540
C         19.49434        46.89038         0.56464
C         20.62341        48.95956        -0.42637
C         19.42795        48.25665         0.05510
C         20.63847        50.42331        -0.31414
C         19.36370        51.08910        -0.04387
C         20.60216        53.24522         0.02168
C         19.36048        52.47448         0.18579
C         20.64745        54.57189         0.70211
C         19.38001        55.33711         0.78822
C         20.70461        57.42939         1.04216
C         19.45591        56.71541         1.01108
C         20.73074        58.83138         1.20181
C         23.17438         3.34641         0.95486
C         21.92984         3.98218         0.80375
C         23.06854         5.84775        -0.34003
C         21.82573         5.25572         0.20650
C         23.04372         7.31358        -0.74421
C         21.73331         8.04080        -0.69847
C         23.06645        10.20513        -0.41764
C         21.76493         9.56020        -0.57417
C         23.07842        11.59204         0.04884
C         21.82604        12.35961         0.15960
C         23.12681        14.49216         0.26838
C         21.87597        13.76650         0.31911
C         23.13097        15.90226         0.41545
C         21.89884        16.58754         0.58872
C         23.19136        18.81994         0.54746
C         21.89581        18.06077         0.53318
C         23.15918        20.29509         0.79669
C         21.98693        20.99055         0.85142
C         23.20815        23.23985         1.05822
C         21.93503        22.50672         0.68777
C         23.11897        24.59234         1.77155
C         21.87986        25.39016         1.30406
C         23.25310        27.45682         0.84561
C         22.00335        26.74296         0.67447
C         23.36463        28.82470         0.26477
C         22.14243        29.59423        -0.09573
C         23.40127        31.75449        -0.11856
C         22.15267        30.95264        -0.29987
C         23.35373        33.28923        -0.05869
C         22.06365        34.00742        -0.21508
C         23.16315        36.14938         0.49340
C         21.98628        35.36077         0.01630
C         23.23664        37.56407         0.08242
C         21.98577        38.26137        -0.17210
C         23.20624        40.40387        -0.42105
C         21.97446        39.64792        -0.21436
C         23.26138        41.83990        -0.12501
C         22.02478        42.48622         0.36442
C         23.30020        44.75654         0.34788
C         22.02336        43.99082         0.60138
C         23.20377        46.16199        -0.13252
C         21.98739        46.79591        -0.09625
C         23.17512        48.97536        -0.55793
C         21.92210        48.20023        -0.54701
C         23.13877        50.37520        -0.48183
C         21.87344        51.07534        -0.37425
C         23.18548        53.24081        -0.00736
C         21.90123        52.54794        -0.28055
C         23.19707        54.60022         0.31250
C         21.96263        55.28405         0.75674
C         23.17551        57.44473         0.80878
C         21.94726        56.74589         0.86766
C         23.18325        58.85763         0.98850
C         21.94939        59.55289         1.19031
C         23.19250        61.65444         1.35480
C         21.98117        60.96402         1.36890
C         24.37094         3.95763         0.59175
C         25.54362         5.95491        -0.29277
C         24.37829         5.25372         0.00266
C         25.53823         7.35850        -0.60703
C         24.30072         8.06284        -0.66458
C         25.53166        10.18444        -0.62914
C         24.28952         9.48740        -0.56006
C         25.50432        11.65118        -0.74473
C         24.37063        12.36001        -0.09849
C         25.56375        14.52935        -0.17572
C         24.35950        13.83319        -0.05340
C         25.62880        15.90877         0.21578
C         24.39027        16.62713         0.47115
C         25.67307        18.69774         0.97010
C         24.41112        18.00520         0.70455
C         25.68550        20.15070         0.69737
C         24.46951        20.98352         0.98816
C         25.74125        23.28673         1.19371
C         24.46722        22.49221         1.18666
C         25.81619        24.66057         1.77310
C         24.44294        25.42058         1.82022
C         25.45382        27.75320         1.80586
C         24.34593        26.87908         1.49517
C         25.64451        29.02190         1.35498
C         24.63272        29.62083         0.48666
C         25.56388        31.79650         1.13053
C         24.57194        31.08777         0.49492
C         25.34451        33.19324         1.35721
C         24.40424        33.96089         0.74084
C         25.73502        36.19253         0.77413
C         24.43766        35.44607         0.90015
C         25.69895        37.52691         0.39925
C         24.46483        38.21322         0.07771
C         25.71875        40.42974        -0.21233
C         24.51609        39.62428        -0.35187
C         25.70915        41.80385        -0.38897
C         24.46072        42.51378        -0.19271
C         25.70531        44.65561        -0.59113
C         24.54704        43.97604         0.03034
C         25.59941        46.05616        -0.95929
C         24.39080        46.84516        -0.63374
C         25.62876        49.02291        -0.98610
C         24.39497        48.23769        -0.72814
C         25.62925        50.45012        -0.59857
C         24.40110        51.11718        -0.43279
C         25.64517        53.23766        -0.10541
C         24.40614        52.52978        -0.18637
C         25.64758        54.64306         0.13567
C         24.42271        55.33153         0.35636
C         25.65030        57.46314         0.60331
C         24.41247        56.73862         0.60068
C         25.63381        58.86711         0.79657
C         24.42410        59.57399         0.98110
C         24.40113        60.98322         1.16760
C         26.75158         8.08172        -0.71581
C         27.98147        10.24170        -0.95031
C         26.76264         9.49685        -0.80151
C         28.03451        11.64643        -0.97934
C         26.76748        12.41758        -1.01018
C         28.09203        14.50305        -0.39663
C         26.78104        13.92876        -0.83082
C         28.11145        15.83403        -0.00788
C         26.88470        16.54737         0.25380
C         28.20209        18.70993         0.31390
C         26.98324        17.94548         0.68111
C         28.14810        20.09817         0.17249
C         26.82100        20.67019         0.14879
C         28.24621        23.12681         0.77093
C         26.83008        22.80729         0.52679
C         28.34923        24.57812         1.12277
C         27.10624        25.34528         1.40539
C         28.14317        27.50847         0.65798
C         27.32491        26.66851         1.63485
C         28.13660        29.00570         1.02316
C         26.94678        29.72329         1.60947
C         28.15766        31.97922         1.09226
C         26.91008        31.22575         1.50114
C         28.29421        33.39988         1.03447
C         27.22623        34.27862         1.40418
C         28.23894        36.14364         0.31512
C         27.04396        35.53573         0.84651
C         28.23592        37.51708        -0.00541
C         26.98705        38.26567         0.27316
C         28.15414        40.36333        -0.66502
C         26.98426        39.71907        -0.01972
C         28.16468        41.83720        -0.66456
C         26.95516        42.53581        -0.56719
C         28.15020        44.69250        -0.95022
C         26.90807        43.97123        -0.76639
C         28.19869        46.07925        -0.89249
C         26.97296        46.81614        -1.15810
C         28.21001        49.01960        -0.76195
C         26.96119        48.30880        -1.11097
C         28.14690        50.44945        -0.63640
C         26.88533        51.13977        -0.52842
C         28.11650        53.26920        -0.19068
C         26.88031        52.54185        -0.27795
C         28.10572        54.65678         0.02442
C         26.88932        55.36926         0.18768
C         26.86757        56.76091         0.40954
C         29.24622        12.35823        -0.94782
C         30.54271        14.42334        -0.70347
C         29.31355        13.76466        -0.68470
C         30.69117        15.79422        -0.22289
C         29.40022        16.53706         0.20371
C         30.60869        18.72041        -0.13666
C         29.42402        18.00689         0.12634
C         30.61252        20.15850        -0.12990
C         29.36690        20.90553         0.08343
C         30.69118        23.02382         0.19863
C         29.39472        22.29252         0.29364
C         30.74040        24.53282         0.29500
C         29.58013        25.34992         0.79940
C         30.62959        27.26301        -0.54483
C         29.54038        26.82448         0.49982
C         30.77748        28.75838        -0.53006
C         28.97290        29.82530         0.32861
C         30.50997        31.78413         0.24249
C         29.22916        31.22664         0.57692
C         30.62075        33.18859         0.20414
C         29.45692        33.98387         0.45609
C         30.62290        36.06197        -0.23783
C         29.44816        35.40160         0.20080
C         30.64614        37.45543        -0.45721
C         29.42198        38.16646        -0.37227
C         30.69174        40.33200        -0.74452
C         29.42276        39.58667        -0.78407
C         30.64824        41.75563        -0.78271
C         29.41690        42.47676        -0.84353
C         30.72339        44.68923        -0.70776
C         29.40393        43.92216        -1.04333
C         30.72637        46.13729        -0.43756
C         29.38497        46.82476        -0.29514
C         30.66523        48.98960        -0.50270
C         29.40630        48.30903        -0.60049
C         30.70538        50.49394        -0.68008
C         29.36674        51.18256        -0.51126
C         29.34516        52.55225        -0.31735
C         31.84202        16.62111        -0.57957
C         33.06386        18.74900        -0.57237
C         31.83979        17.99970        -0.42555
C         33.10445        20.10924        -0.38512
C         31.86099        20.82419        -0.19615
C         33.16687        22.67586         0.63032
C         31.93534        22.20488         0.18026
C         33.25097        24.83727         0.77028
C         31.98572        25.36596         0.33407
C         33.19948        27.35392        -0.46261
C         31.94255        26.60495        -0.22093
C         33.16469        28.84914        -0.32789
C         31.84153        29.51203        -0.15282
C         33.10524        31.72332         0.08847
C         31.77885        30.97383         0.17651
C         33.08159        33.17939        -0.17516
C         31.86919        33.84742        -0.14694
C         33.12738        36.02114        -0.76669
C         31.81531        35.26571        -0.53733
C         33.11543        37.49393        -0.62549
C         31.90476        38.18291        -0.60555
C         33.13882        40.36310        -0.43598
C         31.89899        39.63717        -0.58040
C         33.13019        41.79065        -0.33919
C         31.87177        42.46164        -0.49030
C         33.51584        44.89780        -0.08950
C         31.73820        43.82607        -0.17310
C         33.24528        46.22625        -0.48336
C         31.93621        46.84481        -0.37049
C         31.85444        48.29514        -0.38915
C         34.45030        20.83744        -0.46455
C         35.59058        23.02373         0.20673
C         34.45367        22.22422         0.17808
C         35.68058        24.47515         0.41391
C         34.45443        25.27674         0.33172
C         35.60032        27.43339         0.31494
C         34.53509        26.60293        -0.38628
C         35.64423        28.89013         0.08425
C         34.42054        29.60330        -0.12581
C         35.61657        31.73485        -0.15580
C         34.38546        30.99191        -0.13939
C         35.58597        33.13144        -0.31437
C         34.34207        33.88330        -0.38407
C         35.64150        36.03799        -0.81952
C         34.36758        35.26571        -0.55873
C         35.58270        37.49835        -0.44408
C         34.36769        38.20223        -0.48556
C         35.59752        40.34491        -0.24375
C         34.35754        39.63268        -0.36843
C         35.57809        41.76875        -0.25575
C         34.39052        42.52616        -0.29012
C         34.51051        43.96428        -0.44333
C         36.86912        25.18226         0.44612
C         38.09335        27.47281         0.68693
C         36.87370        26.66088         0.65604
C         38.06693        28.86595         0.59409
C         36.83935        29.58869         0.28227
C         38.07304        31.70338         0.21250
C         36.86013        31.01363         0.07132
C         38.15678        33.12351        -0.14018
C         36.85086        33.86766        -0.44360
C         38.04628        36.02930        -0.05332
C         36.86354        35.32865        -0.32258
C         38.02041        37.45483        -0.03930
C         36.81468        38.19281        -0.21066
C         36.79917        39.60933        -0.12977
C         39.26008        29.64213         0.78907
C         40.44853        31.82375         0.90629
C         39.26427        31.02431         0.64320
C         40.45755        33.18336         0.79640
C         39.30772        33.92517         0.32353
C         39.25241        35.30017         0.29905
O         26.64548        21.89551        -0.50794
O         21.13285        53.23915        -1.34590
O         30.59332        23.94008        -1.03135
O         15.15027        30.96000         0.81174
O         20.83305        25.40150         2.33123
O         20.41795        28.92539        -1.75116
O         16.56323        35.54114         1.36650
O          8.58505        32.35682         0.87152
O         24.49975        21.53379         2.37030
O         28.55312        39.80401        -1.96298
O         21.06879        48.42300        -1.73810
O         28.50081        23.55859         2.16851
O         24.40161        28.93385        -0.78295
O         26.28714        48.85507        -2.29183
O         17.41731        18.40844         2.27298
O         33.15402        28.16997        -1.68331
O         24.02217        11.78150         1.19786
O         11.43526        26.96653        -2.45215
O         16.78231        26.85686        -2.07145
O         23.50682        35.94703         1.91714
O         17.46656        16.33097        -0.69009
O         22.46663        18.54553        -0.73160
O         26.67173        14.37661        -2.33367
O         32.32694        35.51728        -1.88987
O         21.39300        54.58084         1.95921
O         32.55257        31.29901         1.39392
O         25.85623        12.07043        -2.10653
O         21.15479        32.48612        -1.96795
O         33.16187        23.69973         1.58243
O         29.56268        29.34738        -0.84389
O         32.54817        44.35989         0.81955
O         26.19114        46.31762        -2.26704
O         27.02295        30.53928         2.80598
O         17.56856        14.08827         2.12214
O         22.14268        43.05738         1.71447
O         24.29415        44.50014         1.38925
O         30.27694        15.95622         1.19797
O         21.54224         8.87052        -1.87436
O         13.73496        39.87717         1.63741
O         18.77725        46.72810         1.85503
O         26.50208        18.19857         2.05401
O         23.00748         6.24586        -1.74917
O         30.31531        44.36690        -2.08648
O         15.90751        48.67348        -0.71405
O         25.19807        25.03296         3.01827
O         26.50001        27.26519         2.58822
O         27.21198        39.26387         1.36653
O         11.38441        40.10696        -1.28990
O         17.33687        40.35437        -1.47873
O         18.80715        33.66176        -1.97094
O          8.61584        35.90908        -1.41448
O         23.79678        32.59154        -1.26294
O         30.03841        26.35528         1.77152
O         13.55674        44.47825        -0.66694
O         20.78602        19.43917         2.29884
O         18.32236        28.08721         0.95825
O         20.18089        40.34207        -1.72214
O         23.87356        39.93256        -1.64084
O         35.86907        27.06141         1.68879
O         37.73994        33.38352        -1.52495
O         26.23646        33.78796         2.25557
O         16.79020        42.86518         2.08606
O         11.57890        33.40823        -2.05529
O         15.42183        23.53389         1.77170
H         15.53623        22.72437         2.31418
O         18.48813        41.05737         1.89795
H         17.97376        41.65293         2.51603
O         29.09252        46.77178         1.16590
H         29.84356        47.20101         1.63016
O         21.69563        22.73804        -0.74532
H         22.44713        22.36275        -1.25146
O         10.93609        31.55903         1.00860
H         10.79554        30.62727         1.27579
O         26.71647        15.80452        -2.41212
H         25.77519        16.05100        -2.58762
O         14.79387        29.87681        -2.64818
H         14.93523        29.03865        -3.13794
O         21.27846        46.36998         2.07359
H         20.48297        46.23632         2.64116
O         15.76324        45.90714         2.07460
H         16.22441        45.05687         2.27775
O         22.85173        24.23326         3.15217
H         23.71818        23.99154         3.56105
O         31.21499        50.79226        -1.99693
H         30.58618        50.42989        -2.65492
O         35.78248        36.03729        -2.29437
H         36.04757        35.13186        -2.56740
O         19.46506        37.92366        -2.21543
H         19.89524        38.70304        -2.64178
O         13.53014        24.20596        -2.49017
H         13.32984        25.05468        -2.94217
O          9.54799        31.26413        -2.40800
H         10.37616        30.94665        -2.82672
O         34.84175        20.95320        -1.84317
H         34.17264        21.49357        -2.31140
O         19.94838        26.21433        -1.77299
H         20.11061        27.07224        -2.23595
O         13.24982        16.04787         0.09940
H         13.52652        16.05084        -0.83977
O         20.64434        22.80188         2.75198
H         21.25566        23.43792         3.20374
O         13.10271        37.25241         1.86251
H         13.27004        38.15779         2.22572
O         27.46058        27.34266        -0.60762
H         28.01604        27.75896        -1.30588
O         34.99291        26.36220        -1.73597
H         34.60175        27.07192        -2.29812
O         30.10982        26.84069        -1.82256
H         30.81579        26.95680        -2.49306
H          4.96426        31.09111        -0.14277
H          4.92288        33.49786         0.15652
H          7.45441        26.85355        -0.51164
H          6.22384        28.96505        -0.57667
H          5.89352        35.58292         0.41691
H          7.75059        37.76794         1.23747
H          9.92845        22.56212        -0.66481
H          8.72082        24.68877        -0.59257
H          8.62674        39.92966         0.67057
H          9.84551        42.19751         0.81793
H         12.27840        18.30267         0.12318
H         11.11019        20.42228        -0.32454
H         11.08999        44.11528         1.59291
H         12.26298        46.73381         1.39806
H         14.62636        13.97847         0.78450
H         13.93813        16.61926         1.94470
H         13.37332        48.62294         1.43918
H         15.10471        50.89389         1.67261
H         17.18448         9.66737         0.26118
H         15.94394        11.76922         0.38324
H         16.07156        52.93821         1.03824
H         17.22391        55.10880         0.90082
H         19.71424         5.49077         0.57747
H         18.42826         7.55484         0.23988
H         18.52685        57.29285         1.13050
H         19.78527        59.37678         1.33924
H         23.20429         2.35125         1.42064
H         21.02148         3.49261         1.18323
H         23.19558        62.74443         1.49614
H         21.03787        61.50764         1.52114
H         25.32754         3.45144         0.78472
H         26.51665         5.46753        -0.12893
H         26.58542        59.41926         0.79453
H         25.34806        61.54163         1.16428
H         27.70438         7.53231        -0.72844
H         28.92879         9.68242        -0.97795
H         29.05948        55.20204         0.07908
H         27.81586        57.31775         0.43261
H         30.19130        11.80004        -1.02418
H         31.42981        13.90011        -1.09057
H         31.44070        50.93361         0.04272
H         30.29266        53.10710        -0.25031
H         32.74534        16.12335        -0.96482
H         33.99394        18.19320        -0.76392
H         34.04864        46.82503        -0.93838
H         32.79640        48.86318        -0.37052
H         35.23028        20.19860         0.02629
H         36.53135        22.54371        -0.11365
H         36.54149        42.29997        -0.22425
H         35.44568        44.33592        -0.88992
H         37.83683        24.65931         0.40209
H         39.06565        26.96457         0.78039
H         38.95429        38.00181         0.15833
H         37.74899        40.14739         0.00916
H         40.18592        29.12465         1.08191
H         41.35310        31.30016         1.24922
H         41.36396        33.74801         1.06100
H         40.13214        35.88082         0.61613
