         661
 CSIRO Nanostructure Databank - Neutral Graphene Oxide Data Set
C          5.95189        31.80677        -0.12718
C          5.92768        33.15592        -0.29965
C          8.49329        27.64452         0.73739
C          8.45501        29.04540         0.46264
C          7.23713        29.72298         0.29825
C          8.39696        31.72219        -0.49952
C          7.20526        31.06856        -0.12626
C          8.25255        33.03881        -1.23704
C          7.12636        33.88848        -0.65427
C          8.31904        36.04167        -0.94131
C          7.15081        35.25769        -0.60470
C          8.33432        37.40971        -0.95805
C         10.84070        23.39039         1.32263
C         10.93436        24.82445         1.35822
C          9.74623        25.58427         1.13216
C         10.88910        27.84357         1.37836
C          9.69164        26.98382         1.02379
C         10.93035        29.15132         0.57528
C          9.68818        29.76593         0.26456
C         10.88699        31.75117        -0.57136
C          9.65626        31.08753        -0.28635
C         10.88322        33.01649        -1.39281
C          9.56537        33.80211        -1.39787
C         10.84165        36.01312        -0.93767
C          9.56109        35.29135        -1.29184
C         10.83098        37.42508        -1.49116
C          9.52434        38.17465        -1.40662
C         10.76435        40.35162        -1.48288
C          9.59092        39.64072        -1.28586
C         10.80378        41.77276        -1.39138
C         13.51464        19.16390         1.73857
C         13.44416        20.59171         1.63989
C         12.14594        21.17230         1.53526
C         13.65858        23.61451         1.66253
C         11.85828        22.53873         1.78030
C         13.43506        24.91597         1.17284
C         12.18073        25.54652         1.31618
C         13.46188        27.77243         1.01109
C         12.19014        27.03870         1.33822
C         13.41056        29.25187         0.75973
C         12.11933        29.85452         0.34797
C         13.38161        31.84632        -0.56909
C         12.11803        31.14899        -0.26929
C         13.37684        33.17460        -1.04319
C         12.11100        33.88177        -1.17003
C         13.31293        36.00179        -1.71208
C         12.08963        35.24068        -1.26884
C         13.28179        37.48947        -1.41951
C         12.10847        38.17340        -1.44390
C         13.28631        40.41314        -1.57135
C         12.03820        39.62702        -1.88066
C         13.26785        41.77007        -1.55449
C         12.00929        42.51202        -1.47746
C         13.27268        44.62918        -1.03945
C         12.04983        43.90111        -1.26900
C         13.26576        45.96290        -0.64209
C         15.97946        14.90267         2.30751
C         15.97147        16.29074         2.05569
C         14.77287        17.05365         2.09589
C         15.98093        19.19084         1.68267
C         14.71120        18.44078         1.82423
C         15.92584        20.60204         1.21922
C         14.68313        21.34253         1.43907
C         15.85863        23.41957         0.63351
C         14.71883        22.74418         1.28490
C         15.84330        24.90549         0.66395
C         14.53938        25.56446         0.33835
C         15.87360        27.74101         0.34131
C         14.64612        27.04981         0.53120
C         15.92387        29.13214         0.26769
C         14.69098        29.92937         0.39467
C         15.85572        31.87930        -0.54105
C         14.64177        31.23720        -0.28817
C         15.84689        33.22927        -1.01251
C         14.60256        33.89865        -1.18456
C         15.81886        36.01480        -1.45764
C         14.61727        35.30982        -1.39578
C         15.81326        37.48387        -1.10476
C         14.58126        38.22766        -1.66589
C         15.81776        40.38497        -1.34376
C         14.51535        39.65879        -1.12736
C         15.80293        41.76031        -1.41295
C         14.54773        42.53854        -1.74806
C         15.75374        44.61900        -1.10955
C         14.53458        43.93303        -1.18730
C         15.76539        46.00161        -0.70867
C         14.51663        46.62344        -0.13226
C         15.74183        48.84000        -0.14496
C         14.54162        48.13311        -0.18549
C         15.80695        50.27000         0.04706
C         18.40335        10.55788         2.50090
C         18.37912        11.95226         2.20999
C         17.19882        12.74303         2.42145
C         18.38999        14.79478         1.71910
C         17.15768        14.11786         2.18082
C         18.29408        16.17843         1.22966
C         17.19601        16.92057         1.56261
C         18.46991        19.04075         0.93698
C         17.25397        18.39898         1.53039
C         18.34722        20.46991         0.49543
C         17.05616        21.18642         0.68092
C         18.38660        23.21923        -0.05059
C         17.07158        22.60426         0.28228
C         18.71745        24.49450         0.30300
C         16.96746        25.66509         0.81006
C         18.38084        27.55459        -0.08076
C         17.13531        27.00903         0.34500
C         18.41569        28.98323        -0.29421
C         17.26754        29.80282         0.32502
C         18.39372        31.87039        -0.72879
C         17.15936        31.25055        -0.16916
C         18.27598        33.14474        -1.48804
C         17.04691        33.93117        -1.32425
C         18.32046        36.04774        -1.72836
C         17.06377        35.32103        -1.52009
C         18.32772        37.51444        -1.64920
C         17.09172        38.23491        -1.41120
C         18.29210        40.39361        -1.39309
C         17.06381        39.64093        -1.36536
C         18.28645        41.78468        -1.40923
C         17.03330        42.50617        -1.42479
C         18.25107        44.64713        -1.48044
C         16.99024        43.90273        -1.37641
C         18.21733        46.10310        -1.10511
C         16.95230        46.73286        -0.65640
C         18.23499        48.81207        -0.22995
C         16.98281        48.10524        -0.28737
C         18.23398        50.26341        -0.18878
C         17.00423        51.01099         0.06236
C         18.03944        53.23164         0.88490
C         16.96325        52.38149         0.53388
C         17.97924        54.38527         1.71312
C         20.94892         6.39011         3.30148
C         20.88559         7.68985         2.84628
C         19.52846         8.32412         2.62937
C         20.78199        10.43701         1.96068
C         19.56767         9.81261         2.37227
C         20.75594        11.79905         1.55868
C         19.55475        12.53213         1.67358
C         20.62181        14.45358         0.38574
C         19.60678        13.98195         1.40965
C         20.69394        15.96449         0.31184
C         19.37602        16.71200         0.31918
C         20.68130        18.78168        -0.15131
C         19.55682        18.20184         0.38857
C         20.61550        20.16760        -0.68769
C         19.34146        20.95081        -0.53487
C         20.68622        23.09491        -1.10473
C         19.37381        22.42485        -0.81188
C         20.78086        24.57593        -0.92861
C         19.65447        25.34314        -0.40433
C         20.58905        27.42856        -1.34687
C         19.55427        26.73477        -0.45678
C         20.79481        28.90065        -1.02584
C         19.58883        29.65291        -0.72572
C         20.80259        31.75777        -1.26555
C         19.62438        31.07354        -0.90799
C         20.82376        33.17575        -1.48854
C         19.55565        33.87897        -1.75629
C         20.81028        36.01025        -2.05932
C         19.51594        35.34773        -1.82681
C         20.80786        37.56356        -2.02291
C         19.53114        38.21619        -1.70273
C         20.80014        40.41467        -1.57090
C         19.57575        39.62907        -1.17366
C         20.78185        41.77553        -1.51656
C         19.53950        42.53959        -1.40950
C         20.79841        44.77150        -1.54099
C         19.53748        43.91373        -1.43613
C         20.74400        45.93411        -0.56218
C         19.45126        46.67665        -0.49795
C         20.79606        48.79543        -0.42009
C         19.44570        48.13034        -0.29968
C         20.73409        50.25681        -0.08369
C         19.47687        50.87318        -0.35015
C         20.50078        53.07482         1.22638
C         19.38890        52.88483         0.47064
C         20.47101        54.19361         2.24274
C         19.17781        54.99370         2.17994
C         20.44164        56.98941         2.91929
C         19.21053        56.25473         2.77128
C         20.50345        58.21172         3.52093
C         23.49071         3.69587         3.95112
C         22.26066         4.35393         3.85810
C         23.40261         6.39073         3.12268
C         22.19838         5.70242         3.43714
C         23.35420         7.75377         2.69713
C         22.09101         8.40332         2.53057
C         23.24984        10.43379         1.74997
C         22.04220         9.74423         2.05371
C         23.21717        11.77619         1.24177
C         21.97607        12.46154         1.13505
C         23.13571        14.41297         0.21427
C         21.95702        13.78412         0.62566
C         23.05191        15.74956        -0.48419
C         21.84719        16.58301        -0.08463
C         23.06939        18.64612        -0.76732
C         21.88100        18.00948        -0.38042
C         23.08541        20.09599        -0.99434
C         21.88983        20.86764        -0.97312
C         23.16931        22.95766        -1.07282
C         21.93002        22.28030        -1.11455
C         23.21923        24.45576        -1.12382
C         21.95131        25.21197        -1.21588
C         23.22170        27.39138        -1.74532
C         21.92477        26.66307        -1.51984
C         23.25679        28.85510        -1.50757
C         22.00226        29.55752        -1.21066
C         23.24920        31.67672        -1.42611
C         22.04826        31.01582        -1.26663
C         23.27234        33.11025        -1.74479
C         22.03019        33.89011        -1.61624
C         23.32130        36.02239        -1.75365
C         22.07448        35.29592        -1.80857
C         23.29828        37.49883        -1.63576
C         22.08088        38.22100        -1.72726
C         23.28481        40.39989        -1.29040
C         22.09858        39.71989        -1.92492
C         23.25809        41.73304        -1.08989
C         22.07186        42.50806        -1.52761
C         23.29231        44.65074        -0.80533
C         22.10052        43.99148        -1.40786
C         23.22091        46.04668        -0.41404
C         21.99660        46.66141        -0.25005
C         23.11497        48.79028         0.60814
C         21.81796        48.01877         0.41229
C         23.09540        50.26211         0.61629
C         21.84227        50.94118         0.44063
C         23.03111        52.95910         1.49037
C         21.73595        52.26196         1.11078
C         22.91753        54.41960         1.72179
C         21.72752        55.02957         2.00514
C         22.95900        57.15215         2.51156
C         21.62881        56.53895         2.08358
C         23.00610        58.32311         3.27698
C         21.70511        59.10674         3.33812
C         22.78650        60.55521         5.05994
C         21.68717        60.23149         4.32682
C         24.67705         4.35184         3.63533
C         25.85407         6.40059         2.90655
C         24.66335         5.71079         3.22025
C         25.84281         7.77765         2.55417
C         24.56042         8.45891         2.43675
C         25.72031        10.51268         1.69415
C         24.50861         9.80285         1.98400
C         25.67150        11.73376         1.04000
C         24.42452        12.41615         0.83150
C         25.59714        14.45003        -0.04957
C         24.38533        13.74689         0.30784
C         25.59118        15.80805        -0.37542
C         24.34356        16.53206        -0.46544
C         25.58468        18.57151        -1.06503
C         24.31085        17.89566        -0.72062
C         25.58733        20.04795        -1.33417
C         24.31915        20.78780        -1.09044
C         25.62568        22.72366        -0.37312
C         24.34648        22.19002        -0.93923
C         25.74130        24.53107        -1.93951
C         24.49140        25.19872        -1.38954
C         25.71491        27.31623        -1.69152
C         24.52477        26.66836        -1.65353
C         25.72709        28.81462        -1.98241
C         24.45720        29.50116        -1.52652
C         25.79940        31.65659        -1.44691
C         24.51895        30.94546        -1.10263
C         25.90195        33.12615        -1.79072
C         24.57214        33.86489        -1.88191
C         25.83811        36.04121        -1.61321
C         24.54232        35.33192        -1.70661
C         25.79374        37.52393        -1.31316
C         24.48800        38.18500        -1.30266
C         25.51808        40.13850        -0.08116
C         24.60600        39.68140        -1.26339
C         25.54614        41.67825         0.07881
C         24.39100        42.45227        -0.46449
C         25.67641        44.58778        -0.19520
C         24.44470        43.93021        -0.55027
C         25.64786        46.02077        -0.04021
C         24.45784        46.70233        -0.03740
C         25.66689        48.91034         0.38047
C         24.43763        48.10117         0.45008
C         25.60727        50.30288         0.62945
C         24.32361        50.95576         0.82307
C         25.51828        53.10312         1.16534
C         24.31919        52.34869         1.10440
C         25.36502        54.52262         1.27134
C         24.14847        55.18116         1.56618
C         25.93723        57.24276         3.09400
C         24.12025        56.53571         1.97319
C         25.42091        58.04263         4.09930
C         24.16267        58.75895         4.03785
C         24.00297        59.82784         4.93203
C         27.02897         8.47718         2.33266
C         28.25308        10.56428         1.61647
C         27.02151         9.97353         2.24266
C         28.22287        11.73178         0.90024
C         26.91731        12.31267         0.49591
C         28.14868        14.47012        -0.10086
C         26.88022        13.71578        -0.05235
C         28.12514        15.83301        -0.30531
C         26.85478        16.53339        -0.49838
C         28.09121        18.69102        -0.46351
C         26.85408        17.88160        -0.77007
C         28.15052        20.08994        -1.02611
C         26.90922        20.81401        -1.51344
C         28.04659        22.93404        -0.87239
C         26.88709        22.19895        -0.91983
C         28.03320        24.39880        -0.84742
C         26.99337        25.11390        -1.36056
C         27.93611        27.34133        -0.56757
C         27.07641        26.60720        -1.62629
C         28.20390        28.75941        -1.01760
C         27.01192        29.51786        -1.50467
C         28.21097        31.67180        -0.92148
C         26.97914        30.98220        -1.29548
C         28.18001        33.05678        -0.67796
C         26.87033        33.82696        -0.83842
C         28.06885        35.98394        -0.36396
C         27.14215        35.26628        -1.32973
C         28.15253        37.45158        -0.42307
C         26.96424        38.21350        -0.68652
C         28.08349        40.19150         0.42032
C         26.88700        39.51979        -0.24261
C         28.12619        41.67821         0.14889
C         26.84803        42.42291         0.45358
C         28.12841        44.55731         0.00189
C         26.86870        43.87394         0.00994
C         28.12239        46.06402        -0.20933
C         26.90086        46.68841         0.45622
C         28.11073        48.86990         0.44949
C         26.90491        48.20176         0.32683
C         28.13357        50.37702         0.37026
C         26.82196        51.05933         0.75374
C         28.05943        53.02220         1.60307
C         26.81037        52.42598         1.09144
C         28.13527        54.23883         2.34985
C         27.24732        55.31650         2.24766
C         27.02516        56.32889         3.19459
C         29.41536        12.42627         0.50467
C         30.62502        14.46627        -0.13766
C         29.40485        13.75414         0.06290
C         30.64755        15.84054        -0.40783
C         29.37662        16.56471        -0.47307
C         30.61459        18.67733        -1.05107
C         29.36590        17.91816        -0.67553
C         30.58061        20.09632        -0.48056
C         29.31486        20.79771        -0.92012
C         30.51238        22.94233        -0.73935
C         29.32907        22.25746        -0.94047
C         30.55943        24.34243        -0.16730
C         29.22183        25.08606        -0.26606
C         30.53239        27.28466         0.15083
C         29.19237        26.57251        -0.11717
C         30.51523        28.78437        -0.08878
C         29.37185        29.48926        -0.47137
C         30.56250        31.60198        -0.17843
C         29.37972        30.91377        -0.56231
C         30.53486        33.02342        -0.02333
C         29.33780        33.73627        -0.21809
C         30.53049        35.95954         0.28834
C         29.27980        35.20097         0.06797
C         30.56089        37.33321         0.18741
C         29.35321        38.10439        -0.07435
C         30.58816        40.27351        -0.12769
C         29.36454        39.50975         0.02810
C         30.60312        41.71935         0.02272
C         29.32500        42.38835         0.08790
C         30.61736        44.54660        -0.04151
C         29.31819        43.84376         0.01793
C         30.63563        46.04171         0.16702
C         29.36191        46.76441         0.28921
C         30.61292        48.82339         0.82091
C         29.35125        48.12023         0.53518
C         30.52719        50.22758         1.12882
C         29.33947        50.94693         1.07353
C         29.23331        52.24172         1.62151
C         31.86493        16.57013        -0.48076
C         33.07756        18.71803        -0.65800
C         31.90037        17.96660        -0.68548
C         33.09783        20.15216        -0.82576
C         31.83336        20.86753        -0.82924
C         32.98403        23.05318        -1.11355
C         31.77531        22.24520        -0.85825
C         32.96791        24.51541        -0.83729
C         31.75813        25.16109        -0.62316
C         33.01902        27.30958        -0.25575
C         31.69950        26.67419        -0.66493
C         33.01879        28.69475         0.37521
C         31.74759        29.47579         0.08695
C         33.02727        31.59605         0.43959
C         31.76068        30.86791         0.05805
C         32.98988        33.06222         0.09944
C         31.78916        33.72465         0.14534
C         33.06908        35.88747         0.60554
C         31.76407        35.17341         0.47275
C         33.07900        37.38101         0.72478
C         31.79022        38.10132         0.51448
C         33.14768        40.28340         0.43289
C         31.93572        39.51832         0.08884
C         33.10418        41.65784         0.29119
C         31.84965        42.39659         0.12838
C         33.10788        44.54384         0.32109
C         31.87147        43.80529         0.18463
C         33.10369        45.92417         0.51350
C         31.82829        46.62551         0.89195
C         31.80578        48.13383         0.86728
C         34.29188        20.86708        -0.86539
C         35.52653        23.12570        -0.90955
C         34.32752        22.30824        -1.12450
C         35.46996        24.51039        -0.83814
C         34.21438        25.22431        -0.78464
C         35.48381        27.24366         0.11892
C         34.19850        26.60891        -0.38121
C         35.48968        28.74157        -0.04729
C         34.29081        29.46750         0.05692
C         35.53848        31.60879        -0.15201
C         34.27127        30.86506         0.01744
C         35.53402        33.10100        -0.36074
C         34.17740        33.80059        -0.49036
C         35.55864        35.98311         0.11618
C         34.26365        35.25920        -0.04734
C         35.47432        37.28675         0.81878
C         34.38068        38.08986         0.71001
C         35.68107        40.28159         0.37162
C         34.43255        39.59353         0.97250
C         35.57583        41.66673         0.17358
C         34.35756        42.40870         0.29405
C         34.33941        43.79775         0.26974
C         36.70496        25.27874        -0.78182
C         37.96236        27.36923        -0.50779
C         36.74005        26.60071        -0.42927
C         38.03041        28.71689        -0.22996
C         36.78309        29.41878         0.15603
C         38.08532        31.65179         0.05663
C         36.79687        30.91358         0.27037
C         38.06265        33.12582        -0.18048
C         36.78429        33.89102        -0.15233
C         38.12293        35.98847        -0.30115
C         36.84933        35.25655        -0.05113
C         38.14742        37.45178        -0.44279
C         37.30743        38.32279         0.23616
C         36.89473        39.66000        -0.04236
C         39.23485        29.49878        -0.43174
C         40.48902        31.65502        -0.57108
C         39.27993        30.87033        -0.34910
C         40.47986        32.99940        -0.74723
C         39.19533        33.77547        -0.94157
C         39.23562        35.26521        -0.67105
O         32.49638        35.27870         1.78398
O         28.17442        35.50442         1.02052
O         25.27020        57.30578         1.84198
O         27.72006        26.69795        -2.91372
O         19.70240        22.78946        -2.17590
O         24.47536        42.08217         1.00463
O         12.79129        23.16416         2.65401
O         20.82251        36.80680        -3.28131
O         14.13820        30.01486         1.78166
O         26.06557        37.01117        -2.69297
O         23.87566        33.40117        -3.09182
O         22.43556        26.92267        -2.89335
O         36.77298        30.13056         1.47964
O         16.05518        22.92713        -0.76777
O         25.63534        23.35405         0.68285
O         13.10342        27.46000         2.42745
O         33.61713        22.71025        -2.37401
O         10.07368        37.64780        -2.71269
O         22.39950        43.33376        -2.70301
O         23.81184        48.23843         1.79660
O         17.99549        32.12887         0.67781
O         26.84968        12.54399        -0.95512
O         32.28560        37.86626         1.87541
O         22.33220        52.12704         2.47793
O         28.84771        25.71229         1.01947
O         16.88691        18.97644         2.82405
O         34.76077        36.09410        -1.14094
O         19.00882        20.13528         1.76267
O         38.40412        32.61046         1.13975
O         28.09323        29.11126        -2.43076
O         25.45899        19.10326        -2.46323
O         31.43923        39.76147        -1.23285
O         30.80110        45.51372        -1.18451
O         19.50723        52.20852        -0.74731
O         18.80580        33.16373        -2.83715
O         36.65518        37.76469         1.35967
O         19.54417        20.16732        -1.73639
O         18.23388        45.73643        -2.50701
O          9.53136        34.65810        -2.60447
O         19.56145        14.73696         2.66087
O         35.73297        32.18188        -1.49911
O         24.05682        25.00076        -0.01266
O         18.07509        25.05442         1.40058
O         26.46901        55.33171         1.05815
O         19.89165        45.78316         0.62255
O         10.67080        28.24733         2.75528
H         11.56531        28.34282         3.16239
O         14.73868        38.30733        -3.10542
H         13.96676        38.82078        -3.45494
O         27.93852        39.99980         1.87045
H         27.41808        40.76795         2.21556
O         20.51906        53.69956         3.60539
H         21.22049        53.00195         3.62605
O         30.59929        18.82926        -2.49893
H         30.67255        17.93795        -2.89932
O         13.24438        35.95123        -3.18558
H         13.93430        36.57668        -3.51985
O         31.40326        27.05052        -2.04718
H         32.11734        26.69749        -2.61901
O         38.85225        33.64298        -2.36045
H         39.54272        34.10126        -2.88346
O         30.81854        24.10341         1.25302
H         30.65199        24.96229         1.71184
O         30.85066        27.05942         1.55437
H         30.03943        27.23593         2.07880
O         22.80428        15.40943        -1.90287
H         23.04853        16.19121        -2.44423
O         21.35579        57.02818         0.73615
H         21.26928        58.00912         0.81550
O         11.07061        32.54654        -2.76211
H         10.89866        33.32033        -3.34646
O         14.32033        39.58940         0.33445
H         14.32907        40.50791         0.67939
O         27.99982        18.91122         0.99981
H         28.88864        19.25189         1.28500
O         27.08365        21.02284        -2.94079
H         26.68244        20.24522        -3.39388
O         33.08816        31.54584         1.91599
H         33.11956        30.59198         2.17214
O         21.23897        48.66951        -1.80504
H         20.52440        48.98886        -2.39546
O         31.58333        46.25863         2.30663
H         32.30619        46.64602         2.84416
O         30.55362        19.97120         0.97802
H         30.62533        20.87425         1.35649
O         24.56608        30.91011         0.38243
H         23.73556        30.49275         0.69760
O         24.95960        39.57856         1.12444
H         24.42185        40.28633         1.55151
O         35.51561        27.04299         1.56735
H         34.74864        27.54709         1.94104
O         14.20812        25.30503        -1.06749
H         14.70329        24.50274        -1.35095
O         34.44825        39.81934         2.39863
H         33.73882        39.25863         2.78635
O         26.18499        33.88211         0.42479
H         26.79659        34.30211         1.08026
O         10.82293        36.14016         0.51999
H         11.69664        36.47746         0.81154
O         18.79293        16.48687        -1.02375
H         19.44584        16.79301        -1.68960
O         14.61412        42.72465        -3.21170
H         15.40952        43.26676        -3.40425
O         25.70270        23.84619        -2.94851
H         27.22533        26.13744        -3.54845
O         20.81757        45.38859        -2.84669
H         21.17289        44.71755        -3.47345
O         27.09866        27.50123         0.59924
H         27.14044        26.65778         1.10962
O         21.56297        59.68996         1.97834
H         22.30256        60.32338         1.85521
O         33.09296        28.52311         1.83994
H         32.31969        27.94773         2.08127
O         26.46077        33.15375        -3.13369
H         25.71048        32.97300        -3.74792
O         19.94683        27.44348        -2.65417
H         20.66893        27.49286        -3.32459
O         21.23497        47.84338         1.71641
H         21.96669        47.60591         2.32908
O         20.15843        13.98910        -0.91334
H         20.85315        14.22648        -1.56843
O         18.64724         8.01368         3.71671
H         19.01038         8.41981         4.53005
O         17.60893        29.84545         1.74515
H         17.97731        30.74561         1.91766
O         33.84053        33.83072        -1.90026
H         34.47258        34.44523        -2.33693
O         28.04955        46.30983        -1.63774
H         28.92173        46.04256        -2.01208
O         26.82258        42.50895         1.92816
H         25.90043        42.76394         2.16950
O         27.00495        46.39279         1.87538
H         26.24251        46.81188         2.32810
O         25.72453        28.93956        -3.43012
H         26.65019        28.76159        -3.72115
O         27.92978        35.22665        -2.53340
H         27.46618        34.63775        -3.17979
O         28.31951        50.70501        -1.05357
H         27.64169        50.21189        -1.56266
O         25.26331        40.07676        -2.51377
H         25.72563        39.29480        -2.88973
O         19.70740        39.47222         0.29675
H         19.57113        40.35547         0.70196
O         15.73783        37.41287         0.34996
H         15.46675        38.29829         0.69453
O         14.55606        46.30182         1.33420
H         15.37660        46.70700         1.69049
O          7.80331        32.67647        -2.57396
H          8.06442        33.42180        -3.16269
O         12.03514        39.50823        -3.34862
H         11.27142        38.91630        -3.56983
O         27.05552        10.43846         3.65891
H         26.28131        10.03938         4.11148
O         22.26231        39.88726        -3.37103
H         23.21825        39.78469        -3.57604
H          5.03279        31.26504         0.14020
H          4.99388        33.71910        -0.15058
H          7.56091        27.06483         0.65120
H          6.29182        29.19977         0.50547
H          6.24415        35.79755        -0.28714
H          7.42963        37.97306        -0.68196
H          9.93158        22.95190         0.88389
H          8.80714        25.02614         0.98694
H          8.67035        40.18151        -1.01550
H          9.86397        42.31153        -1.19341
H         12.56494        18.61429         1.83020
H         11.31781        20.50174         1.25717
H         11.09919        44.44362        -1.14917
H         12.30754        46.49388        -0.53520
H         15.04542        14.41057         2.61904
H         13.83242        16.52560         2.31817
H         13.58894        48.67357        -0.07370
H         14.85995        50.79832         0.24142
H         17.49014        10.06399         2.86453
H         16.29301        12.23653         2.78822
H         15.96195        52.72319         0.84716
H         17.00893        54.84815         1.95121
H         20.01747         5.85952         3.54819
H         19.07304         7.84106         1.71772
H         18.26662        56.78606         2.97538
H         19.64174        58.60381         4.08196
H         23.52010         2.64599         4.27505
H         21.33098         3.82194         4.10542
H         22.74586        61.38799         5.77685
H         20.75023        60.79577         4.43881
H         25.63803         3.82290         3.70932
H         26.81837         5.87594         2.98009
H         26.00879        58.15997         5.02191
H         24.85291        60.11203         5.56835
H         27.99275         7.95564         2.43491
H         29.22265        10.12554         1.89924
H         28.97523        54.33283         3.05559
H         27.59846        56.30234         4.13166
H         30.38470        11.93769         0.68736
H         31.57618        13.92432        -0.02449
H         31.42972        50.72613         1.51690
H         30.11847        52.66048         2.12535
H         32.80985        16.03354        -0.30154
H         34.03954        18.20166        -0.51202
H         34.06228        46.45377         0.62911
H         32.73719        48.67645         1.09494
H         35.24366        20.34334        -0.68794
H         36.49902        22.61970        -0.81451
H         36.48123        42.22458        -0.11432
H         35.28991        44.35191         0.26270
H         37.63631        24.77007        -1.07701
H         38.86760        26.84781        -0.85798
H         38.82148        37.85705        -1.21341
H         37.55880        40.27304        -0.67461
H         40.14682        28.95247        -0.71973
H         41.44969        31.11602        -0.57349
H         41.43262        33.53094        -0.89940
H         40.14637        35.80988        -0.96846
