         410
 CSIRO Nanostructure Databank - Neutral Graphene Oxide Data Set
C         28.38490        27.58554         2.51513
C         28.30164        28.97720         2.23488
C         27.42795        29.89264         2.89778
C         28.09769        31.73913         1.43125
C         27.40431        31.24035         2.57962
C         28.11675        33.16052         1.02227
C         27.04416        33.94789         1.46755
C         28.07331        35.99961         0.66768
C         27.00498        35.32437         1.27534
C         27.99143        37.42363         0.39294
C         26.85860        38.18743         0.76849
C         27.54840        40.06342        -0.61501
C         26.67607        39.49456         0.34341
C         27.37917        41.42423        -1.10934
C         26.51205        42.39120        -0.63466
C         27.84188        44.47578        -1.12144
C         26.64468        43.78843        -0.89449
C         27.86529        45.92104        -1.04195
C         30.31431        27.39489         1.01919
C         29.31030        26.80796         1.84851
C         30.27869        28.76193         0.72747
C         29.14706        29.49476         1.21146
C         30.46794        31.68747        -0.28187
C         28.80521        30.77765         0.72085
C         30.39954        33.12641        -0.12156
C         29.21197        33.81363         0.34240
C         30.36329        35.96924        -0.26142
C         29.21124        35.25264         0.22192
C         30.31980        37.39978        -0.54951
C         29.00657        38.04417        -0.38926
C         30.53801        40.32997        -1.45130
C         28.66001        39.27005        -0.99804
C         30.49283        41.73403        -1.29802
C         29.28036        42.48657        -1.53299
C         30.30710        44.56058        -0.68291
C         29.12589        43.80832        -1.17287
C         30.31334        46.04424        -0.78674
C         29.01535        46.65593        -0.90214
C         32.81281        24.53436         0.69224
C         31.59587        25.22680         0.65321
C         32.74548        27.35665         0.96816
C         31.54344        26.63029         0.75989
C         32.79488        28.84632         0.80442
C         31.53009        29.37654         0.05912
C         32.86010        31.55645        -0.33065
C         31.57111        30.90120        -0.05431
C         32.83256        33.09798        -0.59012
C         31.58543        33.83557        -0.33442
C         32.83317        35.93842        -0.56941
C         31.59112        35.26030        -0.38616
C         32.83565        37.38372        -0.99091
C         31.51094        38.10445        -0.81944
C         32.83428        40.25593        -0.72160
C         31.61466        39.54873        -0.99643
C         32.86136        41.67992        -0.67616
C         31.65282        42.39069        -0.84263
C         32.87385        44.56577        -0.57929
C         31.60656        43.82837        -0.55192
C         32.84347        46.02890        -0.91610
C         31.51790        46.73149        -0.66808
C         32.76188        48.81090        -0.28806
C         31.58036        48.15239        -0.49066
C         35.46375        23.24276         1.31758
C         35.33147        24.60007         1.12222
C         33.98445        25.20591         1.09850
C         35.69569        27.68258         1.16776
C         33.83251        26.57850         1.37663
C         35.47957        28.96475         0.66546
C         34.13648        29.62282         0.67706
C         35.31496        31.64395        -0.29163
C         34.13293        30.94725         0.00514
C         35.30846        33.07521        -0.50334
C         34.09700        33.81267        -0.45836
C         35.30515        35.97294        -0.34035
C         34.04118        35.23580        -0.46988
C         35.30150        37.44458        -0.45395
C         34.05446        38.14602        -0.49493
C         35.26140        40.28733        -0.11254
C         34.03874        39.53295        -0.43561
C         35.30495        41.74905        -0.30122
C         34.08938        42.42319        -0.46439
C         35.32375        44.59453        -0.39788
C         34.07048        43.87152        -0.50397
C         35.30796        46.02050        -0.32021
C         34.07376        46.74783        -0.41862
C         35.26359        48.85160         0.03935
C         34.03442        48.12631        -0.21544
C         35.25697        50.25491         0.23350
C         37.89719        23.16735         0.91820
C         36.71169        22.55650         1.27898
C         37.85580        24.56257         0.44283
C         36.53957        25.35313         0.65414
C         37.87128        27.44363         0.18120
C         36.71540        26.82440         0.69719
C         37.85907        28.86345        -0.00668
C         36.62141        29.58160         0.07146
C         37.79275        31.64212        -0.57002
C         36.58805        30.96426        -0.26882
C         37.76269        33.04952        -0.82020
C         36.56145        33.74601        -0.68572
C         37.78625        35.95563        -0.92153
C         36.60294        35.21039        -0.53377
C         37.72746        37.40040        -0.95506
C         36.51766        38.11093        -0.51409
C         37.85148        40.29296        -0.38731
C         36.59254        39.53496        -0.21267
C         37.81508        41.74162        -0.25698
C         36.55773        42.44145        -0.27076
C         37.77157        44.61215        -0.19522
C         36.54568        43.87956        -0.30185
C         37.75309        46.01475        -0.05620
C         36.53135        46.72768        -0.10205
C         37.73414        48.90580         0.09251
C         36.50897        48.16633         0.03401
C         37.68469        50.31784         0.17171
C         36.43915        50.96585         0.30563
C         40.47391        20.44964         1.32753
C         39.26877        21.12570         1.32995
C         40.37842        23.18885         0.62004
C         39.18716        22.49360         0.96828
C         40.35749        24.59817         0.28683
C         39.12028        25.30872         0.27964
C         40.31660        27.40497        -0.20712
C         39.09718        26.69410         0.02849
C         40.32161        28.82922        -0.30924
C         39.07049        29.55981        -0.27628
C         40.28283        31.69518        -0.61069
C         39.05207        30.95745        -0.50954
C         40.29885        33.05554        -0.89890
C         39.02181        33.74039        -1.18014
C         40.30982        35.99950        -1.08490
C         39.02758        35.27400        -1.27581
C         40.30505        37.39842        -0.96334
C         39.04526        38.17686        -1.03475
C         40.31934        40.25668        -0.40305
C         39.02590        39.59338        -0.60818
C         40.31659        41.76038        -0.21866
C         39.02595        42.48146        -0.29921
C         40.24172        44.64656        -0.37809
C         39.02980        43.90415        -0.27020
C         40.27609        46.03767        -0.17842
C         39.02742        46.72108         0.34600
C         40.20717        48.88090         0.02239
C         39.00696        48.20630         0.07955
C         40.23558        50.35366        -0.08183
C         38.92244        51.11820         0.03925
C         40.19164        53.13091         0.69796
C         39.00065        52.50829         0.52683
C         42.91457        20.41752         0.93327
C         41.66763        21.11356         0.96463
C         42.84033        23.17022         0.26825
C         41.62556        22.49545         0.62003
C         42.80890        24.55933        -0.06413
C         41.55568        25.27292        -0.04460
C         42.74518        27.39823        -0.56378
C         41.54494        26.68969        -0.29583
C         42.75979        28.80745        -0.55169
C         41.54176        29.51890        -0.40423
C         42.80516        31.70353        -0.66648
C         41.55668        31.00955        -0.18308
C         42.79713        33.08745        -0.85342
C         41.52930        33.81580        -0.92828
C         42.81024        35.93723        -0.92204
C         41.51778        35.21783        -0.99805
C         42.81084        37.42449        -1.01594
C         41.52533        38.16686        -0.96070
C         42.75686        40.31538        -1.19160
C         41.54527        39.53738        -0.81606
C         42.83413        41.78129        -0.87796
C         41.59471        42.51784        -0.47371
C         42.73186        44.71449        -0.81564
C         41.44118        43.95437        -0.97321
C         42.73745        46.06898        -0.54615
C         41.48714        46.76012        -0.27046
C         42.67737        48.90231         0.04144
C         41.48757        48.18447        -0.03785
C         42.68276        50.31260         0.35005
C         41.47453        51.04763         0.29961
C         42.67367        53.08043         0.88016
C         41.45577        52.42953         0.58578
C         44.06831        21.05846         0.57024
C         45.27018        23.12982        -0.14975
C         44.07143        22.45113         0.23021
C         45.21569        24.50764        -0.46783
C         44.00535        25.22101        -0.41711
C         45.26366        27.39636        -0.69793
C         43.98098        26.63482        -0.95912
C         45.25062        28.81891        -0.65555
C         44.01742        29.53805        -0.64439
C         45.27778        31.65481        -0.79006
C         44.02991        30.95504        -0.69857
C         45.28427        33.07333        -0.92148
C         44.05281        33.79026        -0.99692
C         45.30287        35.89677        -1.20383
C         44.07972        35.19819        -1.13056
C         45.32036        37.35106        -1.53749
C         44.02593        38.10060        -1.56919
C         45.33805        40.31331        -1.68826
C         44.00534        39.60257        -1.62926
C         45.33094        41.82865        -1.60131
C         43.99902        42.54724        -1.46621
C         45.27922        44.76280        -1.09249
C         43.97252        44.03282        -1.25799
C         45.22037        46.13598        -0.51396
C         44.00458        46.78448        -0.42595
C         45.16904        48.85777         0.40875
C         43.99561        48.29103        -0.35292
C         45.11742        50.19083         0.84982
C         43.89164        50.97538         0.69491
C         43.86338        52.36525         0.93050
C         47.70872        23.06519        -0.49719
C         46.54916        22.44850        -0.16971
C         47.74400        24.47837        -0.91964
C         46.44355        25.22897        -0.88016
C         47.72134        27.38500        -0.58594
C         46.47853        26.70392        -0.71162
C         47.72775        28.80814        -0.54919
C         46.49534        29.52395        -0.63244
C         47.75683        31.65284        -0.69434
C         46.51060        30.94531        -0.69939
C         47.75924        33.06360        -0.83711
C         46.52629        33.77867        -0.95513
C         47.77989        35.91711        -1.11241
C         46.52906        35.19596        -1.10786
C         47.75586        37.36657        -1.20184
C         46.59197        38.11002        -1.39315
C         47.74319        40.31299        -1.12991
C         46.58802        39.56399        -1.38205
C         47.71425        41.76693        -0.91872
C         46.56287        42.50931        -1.14212
C         47.85697        44.72338        -0.62634
C         46.57889        43.99970        -1.07091
C         47.62613        46.01432         0.14398
C         46.44082        46.74916         0.00452
C         47.49819        48.67772         1.16148
C         46.35980        48.09354         0.53646
C         47.41149        50.01267         1.63188
C         46.25806        50.74997         1.47847
C         50.22573        24.57069        -0.76952
C         49.00218        25.24877        -0.74885
C         50.19074        27.33598        -0.24671
C         48.97812        26.65413        -0.54347
C         50.15986        28.79833        -0.00088
C         48.95374        29.53456        -0.40645
C         50.25695        31.65162        -0.53854
C         48.98903        30.93823        -0.50067
C         50.22379        33.04488        -0.86583
C         49.01095        33.76446        -0.92031
C         50.24932        35.93101        -0.86948
C         48.99468        35.20873        -1.02867
C         50.24224        37.30859        -0.78199
C         49.04158        38.07176        -1.17608
C         50.25725        40.28295        -0.60075
C         49.04073        39.59970        -1.15815
C         50.12141        41.69840        -0.13854
C         48.87429        42.45484        -0.35308
C         49.96011        44.39762         0.73268
C         48.86548        43.79284         0.00689
C         49.93069        45.77278         1.10022
C         48.75447        46.57112         0.83783
C         49.84905        48.45832         1.95985
C         48.70136        47.90221         1.32210
C         51.41329        25.24814        -0.53539
C         52.66728        27.29866         0.09580
C         51.41278        26.62165        -0.22792
C         52.70043        28.69857         0.28547
C         51.48264        29.57612         0.17754
C         52.73246        31.72773        -0.55545
C         51.49988        30.99190        -0.30183
C         52.75595        33.03450        -1.02391
C         51.47149        33.76627        -1.31541
C         52.70828        35.83054        -0.59013
C         51.50694        35.19776        -0.82170
C         52.75302        37.28737        -0.32854
C         51.47603        38.06152        -0.47169
C         52.00354        39.95637         1.09531
C         51.26098        39.42899         0.08331
C         52.01977        41.36259         1.43383
C         51.07564        42.21657         0.85117
C         52.15230        44.14803         1.90281
C         51.04733        43.59223         1.18416
C         52.17970        45.54079         2.16932
C         51.04220        46.33877         1.80716
C         50.97728        47.71164         2.18301
C         55.09407        27.15463         0.46900
C         53.86392        26.55099         0.25897
C         55.15910        28.55412         0.63634
C         53.92384        29.23315         0.71682
C         55.23217        31.16662        -0.70729
C         54.00577        31.16358        -0.09690
C         55.23837        33.25576        -1.58901
C         54.00288        33.80059        -1.16352
C         55.19766        35.94877        -0.81721
C         53.98863        35.18602        -0.83528
C         55.22920        37.26171        -0.16293
C         54.00613        37.79892         0.29644
C         55.18624        39.61943         1.48379
C         54.02544        38.85584         1.20715
C         55.06499        40.87786         2.21749
C         53.04920        41.91146         2.24301
C         54.46265        43.88047         2.82243
C         53.22281        43.29743         2.34388
C         54.42958        45.28786         3.11722
C         53.33971        46.06994         2.83186
C         56.38699        29.30377         0.46868
C         56.41066        30.48820        -0.22169
C         56.39367        34.03600        -1.71794
C         56.37993        35.36546        -1.30753
C         56.41555        37.95605         0.17216
C         56.38634        39.14385         0.90242
C         55.97105        41.91902         2.25595
C         55.69852        43.22079         2.77343
O         32.83210        32.14369        -1.69000
O         36.93471        24.82461        -0.66237
O         53.88234        41.04323         2.97989
O         46.08875        44.65326        -2.30813
O         50.60733        29.28919         1.31739
O         47.00674        24.77061        -2.16647
O         38.26316        37.94427        -2.24823
O         43.06364        40.09787        -2.62359
O         40.41828        40.87770         0.93897
O         30.76504        44.12565         0.66023
O         33.31472        29.61646         1.91216
O         55.36098        31.89445        -1.92335
O         52.45713        38.04519        -1.57980
O         38.97691        34.41856        -2.48095
O         44.56709        37.55265        -2.80595
O         34.83514        27.18187         2.13701
O         52.82239        39.12865         1.87033
O         53.93924        30.56020         1.17937
O         43.00184        36.79089         0.30432
O         35.95926        39.84327         1.08707
O         49.28505        38.87916        -2.39579
O         43.75436        43.42188        -2.60258
O         29.46223        39.68535        -2.07474
O         29.24734        31.07069        -0.57104
O         28.21967        41.81884        -2.17986
O         42.62844        42.21052         0.51112
O         45.47321        41.14307        -2.88304
O         36.08861        35.57145         0.84053
O         39.57351        50.91276        -1.26503
O         50.79581        41.34954        -1.43534
O         43.90052        26.49338        -2.42199
H         44.68848        25.98373        -2.71217
O         32.95781        46.04845        -2.40229
H         33.88126        45.80347        -2.62803
O         51.34637        33.86371        -2.77946
H         52.04556        34.47358        -3.09829
O         39.09417        46.59750         1.81592
H         39.05037        45.64151         2.03240
O         31.65199        28.82742        -1.27597
H         30.93639        29.20943        -1.82644
O         33.03686        37.33920        -2.46026
H         32.25372        36.89771        -2.85352
O         41.12869        43.83402        -2.39666
H         41.98561        43.69096        -2.87611
O         44.18473        48.72006        -1.75408
H         45.02927        48.33356        -2.07054
O         48.54421        45.16197        -1.83860
H         47.85123        45.27326        -2.53182
O         41.59634        31.15994         1.29114
H         41.63687        32.12068         1.48696
H         27.70821        27.13397         3.25438
H         26.80596        29.52185         3.72503
H         26.79914        31.92214         3.19357
H         26.19679        33.46518         1.97275
H         26.12129        35.87383         1.62322
H         26.10077        37.75043         1.43099
H         25.80230        40.06123         0.69371
H         25.68385        42.08706         0.02379
H         25.76269        44.40988        -0.66820
H         26.90019        46.44847        -1.08594
H         29.36622        25.73003         2.05839
H         28.93832        47.75262        -0.88585
H         32.83829        23.45990         0.46302
H         30.66729        24.66771         0.47123
H         32.72726        49.89696        -0.13359
H         30.64393        48.72725        -0.45368
H         34.57354        22.65698         1.58843
H         34.31024        50.80627         0.29036
H         36.70452        21.50175         1.58476
H         36.39748        52.05849         0.40782
H         40.51078        19.38527         1.60010
H         38.35907        20.57677         1.60582
H         40.21806        54.18069         1.02648
H         38.07100        53.05164         0.74846
H         42.93265        19.35020         1.19691
H         42.67294        54.16010         1.08738
H         45.00428        20.48578         0.54519
H         44.79189        52.90356         1.16362
H         48.65190        22.50762        -0.41140
H         46.59291        21.39482         0.13610
H         48.26985        50.48386         2.12674
H         46.22999        51.77907         1.85975
H         50.26033        23.49565        -0.98883
H         49.84057        49.50318         2.29441
H         52.35196        24.68418        -0.58728
H         51.82890        48.18172         2.69152
H         56.01493        26.55513         0.46290
H         53.84250        25.45923         0.15800
H         55.32774        45.75081         3.55284
H         53.38927        47.14083         3.07070
H         57.33995        28.79481         0.67953
H         57.38188        30.88792        -0.55053
H         57.31419        33.57553        -2.09847
H         57.30588        35.95338        -1.35798
H         57.38759        37.58007        -0.17490
H         57.32605        39.68607         1.08071
H         56.98085        41.74874         1.85195
H         56.58294        43.84722         2.97574
