         341
 CSIRO Nanostructure Databank - Neutral Graphene Oxide Data Set
C          1.33627         2.18315        -1.22405
C          1.27511         3.56992        -0.95347
C          2.52430         1.49818        -1.10045
C          2.40308         4.28518        -0.57211
C          1.33533         6.49043        -1.18537
C          1.59113         7.66874        -1.76064
C          2.28302         5.77461        -0.24935
C          2.89481         8.40787        -1.62393
C          1.55054        10.59581        -1.45353
C          1.44918        11.98114        -1.28124
C          2.73610         9.87848        -1.27415
C          2.52080        12.71847        -0.60942
C          1.34364        15.01039        -0.99216
C          1.42218        16.23132        -1.54550
C          2.53076        14.25649        -0.41999
C          2.72640        16.87606        -1.97558
C          2.76064        18.38760        -1.92873
C          3.70343         2.18103        -0.68030
C          3.64146         3.58962        -0.41037
C          4.91925         1.48765        -0.51249
C          4.81999         4.24481         0.05851
C          3.63475         6.46529        -0.19296
C          3.86430         7.70426        -0.68941
C          4.73800         5.67353         0.43177
C          5.22747         8.36772        -0.54810
C          4.02457        10.64806        -1.17086
C          3.84466        11.99680        -0.49271
C          5.16312         9.88205        -0.51734
C          5.10415        12.75175        -0.31571
C          3.86360        14.79828        -1.02881
C          3.89184        16.34329        -1.10575
C          5.09348        14.26652        -0.26475
C          5.24366        16.93352        -1.60336
C          3.90850        19.07408        -1.71366
C          5.19306        18.43800        -1.44959
C          6.09565         2.14906        -0.10551
C          6.03590         3.55949         0.19306
C          7.32885         1.45144        -0.02541
C          7.26362         4.25500         0.55087
C          5.99406         6.37677         0.84021
C          5.99036         7.89515         0.72212
C          7.26002         5.63486         0.82083
C          7.37842         8.51259         0.74564
C          6.25391        10.59187        -0.04393
C          6.27173        12.05502        -0.14524
C          7.41689         9.93337         0.50660
C          7.51785        12.76726         0.10026
C          6.40627        14.80418        -0.87109
C          6.42753        16.30371        -0.91688
C          7.56501        14.19964        -0.12899
C          7.54498        17.03046        -0.59387
C          6.32267        19.13906        -1.12755
C          7.56802        18.48046        -0.76815
C          8.53877         2.12976         0.24096
C          8.49204         3.52287         0.53304
C          9.80196         1.45648         0.12206
C          9.76109         4.27273         0.49316
C          8.49770         6.33443         1.32552
C          8.50009         7.82949         1.12672
C          9.76713         5.73700         0.74648
C          9.76535         8.54653         1.56293
C          8.60139        10.66091         0.78928
C          8.61281        12.08707         0.60051
C          9.80144        10.00184         1.17066
C          9.75575        12.87627         1.18424
C          8.68190        14.94399         0.15650
C          8.73678        16.37052        -0.07491
C          9.95189        14.19449         0.44188
C          9.89255        17.10164         0.17551
C          8.74636        19.17103        -0.56742
C          9.95912        18.51284        -0.13415
C         11.03663         2.10380         0.28164
C         11.05967         3.54051         0.75774
C         12.26890         1.45827         0.13117
C         12.26632         4.32730         0.21853
C         11.06507         6.43687         0.97411
C         11.05565         7.81502         1.23122
C         12.28229         5.74483         0.76158
C         12.28495         8.52626         1.29428
C         11.03619        10.70476         1.24140
C         11.06161        12.11650         1.18273
C         12.28982         9.96143         1.33495
C         12.27086        12.86481         1.26232
C         11.02721        14.99897         1.12222
C         11.05425        16.48577         0.85934
C         12.28137        14.25969         1.30864
C         12.35526        17.17235         0.83821
C         11.16508        19.19097         0.01391
C         12.38585        18.53914         0.43239
C         13.52073         2.14558         0.30535
C         13.54302         3.56410         0.46418
C         14.73791         1.43479         0.29805
C         14.75989         4.25162         0.63726
C         13.51145         6.41409         0.94157
C         13.52296         7.81629         1.21754
C         14.76569         5.70371         0.85668
C         14.76126         8.51581         1.38815
C         13.51300        10.64246         1.34824
C         13.55329        12.11853         1.03368
C         14.73242         9.92791         1.46380
C         14.79646        12.82777         1.49673
C         13.50091        15.04980         1.58503
C         13.54280        16.49805         1.21957
C         14.80369        14.29739         1.67960
C         14.77384        17.17679         1.21164
C         13.61261        19.22195         0.47529
C         14.81079        18.56655         0.86463
C         15.97717         2.11288         0.39996
C         15.97105         3.52531         0.58381
C         17.22007         1.41704         0.30518
C         17.25687         4.29187         0.47614
C         15.95849         6.38093         1.10870
C         16.01376         7.78838         1.38451
C         17.20644         5.59621         1.23665
C         17.26734         8.45010         1.52324
C         15.97978        10.67310         1.68617
C         15.96641        12.14374         1.49924
C         17.30025         9.91115         1.72880
C         17.23854        12.85920         1.29561
C         16.07670        15.02425         1.53343
C         16.03927        16.52039         1.74200
C         17.26028        14.33781         1.41403
C         17.30635        17.18854         1.27344
C         16.04649        19.26787         0.87737
C         17.29211        18.59674         1.03177
C         18.47010         2.07193         0.43544
C         18.51256         3.48711         0.68507
C         19.69288         1.36553         0.34429
C         19.72908         4.13693         0.87656
C         18.49981         6.30083         1.49806
C         18.52361         7.77661         1.46029
C         19.78016         5.54353         1.34067
C         19.75295         8.47091         1.32384
C         18.56063        10.62474         1.48394
C         18.51982        12.08808         1.28193
C         19.75635         9.92281         1.28896
C         19.77674        12.86587         1.43432
C         18.52619        15.02699         1.26763
C         18.51426        16.46633         1.17412
C         19.73894        14.32149         1.17252
C         19.74926        17.15337         0.96949
C         18.51988        19.28153         0.87367
C         19.75270        18.58943         0.87901
C         20.93032         2.04058         0.38585
C         20.96175         3.45209         0.65203
C         22.15021         1.35314         0.13175
C         22.19217         4.17309         0.55717
C         21.06973         6.30500         1.27170
C         21.02292         7.79093         1.18332
C         22.25805         5.58872         0.75380
C         22.20314         8.48097         0.93997
C         20.99036        10.62160         1.05538
C         21.05314        12.08793         1.20459
C         22.19893         9.92497         0.84461
C         22.21093        12.82046         0.68315
C         20.96909        14.99311         0.92668
C         20.97070        16.42591         0.85364
C         22.17641        14.25864         0.64741
C         22.19506        17.12960         0.67374
C         20.98675        19.27338         0.75840
C         22.20770        18.57065         0.66365
C         23.36673         2.03279         0.04101
C         23.39467         3.47531         0.22726
C         24.55981         1.34395        -0.32952
C         24.58361         4.19347         0.02787
C         23.44058         6.29489         0.54346
C         23.53125         7.73884         0.98114
C         24.61426         5.60628         0.11728
C         24.69346         8.47406         0.36047
C         23.39082        10.65861         0.54815
C         23.35180        12.05869         0.34121
C         24.74070         9.96464         0.60960
C         24.52183        12.76365        -0.23304
C         23.35340        14.99200         0.33970
C         23.40069        16.40710         0.44600
C         24.52534        14.30161        -0.20317
C         24.63712        17.10624         0.24355
C         23.44280        19.24619         0.52793
C         24.65492        18.54279         0.33237
C         25.77640         2.00660        -0.49436
C         25.89850         3.46139        -0.09242
C         26.94741         1.35257        -0.91134
C         26.85966         4.20378        -1.01004
C         25.82754         6.33889        -0.18848
C         25.83615         7.78661        -0.06293
C         26.97171         5.66669        -0.64414
C         27.05568         8.47528        -0.42012
C         25.74352        10.59208        -0.36823
C         25.80957        12.09698        -0.31936
C         27.13611         9.97092        -0.22214
C         26.98530        12.81058        -0.59600
C         25.82294        14.98319        -0.22766
C         25.84277        16.39851        -0.02711
C         27.00283        14.26463        -0.49787
C         27.07460        17.10180        -0.17887
C         25.88277        19.22914         0.19793
C         27.09076        18.53768        -0.04796
C         28.16575         2.06057        -1.11389
C         28.18089         3.48005        -1.08754
C         29.39107         1.36209        -1.35750
C         29.37660         4.19615        -1.26034
C         28.18569         6.35552        -0.90645
C         28.20469         7.79002        -0.80579
C         29.39116         5.63934        -1.20190
C         29.44652         8.50878        -1.08304
C         28.13596        10.64113        -1.17121
C         28.20923        12.12219        -0.88308
C         29.46005         9.92308        -1.13449
C         29.42105        12.81848        -1.03120
C         28.24552        14.96400        -0.62352
C         28.26819        16.39549        -0.47987
C         29.44681        14.25638        -0.89868
C         29.49614        17.10967        -0.62758
C         28.31249        19.22766        -0.19614
C         29.50937        18.53756        -0.47812
C         30.56781         2.04904        -1.52674
C         30.59860         3.47545        -1.47002
C         31.80113         4.19764        -1.62419
C         30.62529         6.32983        -1.35217
C         30.64929         7.78539        -1.29660
C         31.80975         5.58294        -1.56512
C         31.84619         8.51884        -1.47600
C         30.65724        10.64094        -1.31456
C         30.64616        12.10487        -1.30046
C         31.85755         9.90241        -1.45767
C         31.81707        12.84128        -1.48850
C         30.67961        14.96560        -1.06899
C         30.70837        16.41713        -0.92405
C         31.83456        14.23700        -1.38280
C         31.89427        17.15711        -1.06003
C         30.73741        19.24140        -0.62703
C         31.90328        18.55424        -0.91258
O         20.59925        12.51030         2.57384
O          2.93464        12.02663         0.65546
O          5.00987         5.91365         1.86765
O         14.07550        14.73013         2.91477
O         17.72075         5.66813         2.59083
O         10.66320        15.91245         2.17948
O         24.20455        13.55490        -1.43175
O         20.61413         5.72916         2.54305
O         16.62036        10.34707         2.97597
O          9.69833         5.25634        -0.64090
O         25.18358        10.25809        -1.66199
H         25.86028        10.47691        -2.34791
O         27.65734        10.50132        -2.55261
H         28.28175        10.98536        -3.13346
O         23.87430         7.70613         2.43464
H         24.51262         6.97227         2.56889
O          8.57818         6.06215         2.77590
H          7.68062         6.20221         3.14880
O         26.49228         3.47925         1.23913
H         25.91926         2.94789         1.83052
O          4.43863        10.95317        -2.55027
H          4.20394        10.15555        -3.08776
O          9.40248        13.17858         2.55602
H          9.27732        12.33211         3.03382
O          2.87922        16.49088        -3.37617
H          3.00085        15.50564        -3.37223
O         12.16431         4.42283        -1.22664
H         11.29886         4.86254        -1.42214
O         11.21799         3.50994         2.20249
H         10.51135         2.94465         2.57863
O         10.50857        13.87852        -0.87464
H          9.78306        13.51865        -1.42900
O          5.11745        14.70974         1.10047
H          4.19097        14.74424         1.43733
O          6.52405        14.32312        -2.25926
H          6.47651        15.12223        -2.84515
O         15.99089        16.71371         3.20220
H         15.24371        16.15024         3.52492
O          3.88498        14.24452        -2.36715
H          4.83067        14.02595        -2.59133
O         13.70826        12.16086        -0.44507
H         12.81740        12.04643        -0.84162
O          3.54062         8.37920        -2.95327
H          4.45728         8.02640        -2.83212
O         26.27617         4.16208        -2.34733
H         26.87843         4.64158        -2.95369
O          5.99064         7.96704        -1.73307
H          6.78083         8.54632        -1.79317
O          5.44437        16.64910        -3.02286
H          4.58019        16.82874        -3.48448
O         27.66419        10.22813         1.09752
H         26.92723        10.11061         1.74879
O          1.71000         5.84477         1.08756
H          1.69203         6.78590         1.35970
O         17.84777        12.41981         0.00095
O          2.46938        14.50541         1.00966
H          2.51979        13.61631         1.44753
O          5.29319         8.44799         1.85627
H          4.85561         7.68956         2.31534
O         25.17588        10.14317         1.99819
H         24.68751         9.46150         2.52756
O          3.71717        16.87824         0.21694
H          2.95986        16.42330         0.64749
O         17.32898         4.73224        -0.93462
H         17.21838         3.93725        -1.49899
O          9.70604         8.55138         3.03666
H          9.50378         7.62066         3.30728
H          0.42223         1.65628        -1.53159
H          0.30320         4.07345        -1.04298
H          2.57548         0.42001        -1.30946
H          0.35172         6.02554        -1.35242
H          0.84092         8.10826        -2.43597
H          0.64581        10.05895        -1.77883
H          0.53057        12.50347        -1.58193
H          0.34827        14.58946        -0.77400
H          0.49212        16.73880        -1.85052
H          1.82294        18.93507        -2.11183
H          4.95499         0.40850        -0.72415
H          3.88007        20.17571        -1.69764
H          7.35227         0.37904        -0.26944
H          6.29245        20.24011        -1.09237
H          9.79462         0.39456        -0.16843
H          8.77413        20.25981        -0.72742
H         12.29033         0.38388        -0.10843
H         11.21164        20.26347        -0.22821
H         14.72896         0.34257         0.16972
H         13.65263        20.28512         0.19519
H         17.20486         0.32957         0.14069
H         16.04843        20.34376         0.64694
H         19.67658         0.28003         0.16640
H         18.51490        20.37228         0.73090
H         22.12229         0.26865        -0.05209
H         20.99164        20.37236         0.71169
H         24.49567         0.26827        -0.55599
H         23.45949        20.34594         0.55465
H         26.93254         0.26237        -1.06513
H         25.89794        20.32633         0.27666
H         29.37862         0.26305        -1.39400
H         28.33020        20.32332        -0.09922
H         31.50781         1.50609        -1.70346
H         32.74090         3.65087        -1.78863
H         32.77037         6.10150        -1.68238
H         32.79906         7.99430        -1.62535
H         32.81816        10.42024        -1.57879
H         32.76284        12.33106        -1.71419
H         32.79099        14.75326        -1.53843
H         32.84321        16.65172        -1.28337
H         30.74668        20.33461        -0.51158
H         32.85028        19.10040        -1.02556
