         341
 CSIRO Nanostructure Databank - Neutral Graphene Oxide Data Set
C          1.34397         2.36310         0.32495
C          1.26833         3.45272        -0.50495
C          2.56978         1.76819         0.70689
C          2.47763         4.16291        -1.04395
C          1.26655         6.33204        -0.24712
C          1.17332         7.68427        -0.18909
C          2.50623         5.66154        -0.61751
C          2.39106         8.52720        -0.51374
C          1.13594        10.72549        -0.22669
C          1.10645        12.08792        -0.28950
C          2.36219         9.99741        -0.16160
C          2.36465        12.88518        -0.44831
C          1.12193        15.12110        -0.07623
C          1.19212        16.47270        -0.28162
C          2.31506        14.26939         0.24430
C          2.42817        17.17410        -0.39718
C          2.50684        18.56627        -0.58683
C          3.79370         2.27488         0.20300
C          3.75407         3.43231        -0.65008
C          5.03683         1.63637         0.44674
C          4.97496         3.91612        -1.10346
C          3.66042         6.43205        -0.59535
C          3.59884         7.80282         0.06970
C          4.94225         6.00539        -1.04350
C          4.88873         8.57884        -0.03103
C          3.58802        10.69745        -0.00640
C          3.60324        12.12005        -0.00899
C          4.85010         9.98195         0.09117
C          4.81045        12.82523         0.22966
C          3.63386        14.97615         0.01814
C          3.67342        16.35933        -0.58459
C          4.79481        14.28815         0.19995
C          4.95085        17.11821        -0.34273
C          3.72460        19.21503        -0.77145
C          4.97575        18.52134        -0.63927
C          6.27222         2.17093        -0.02606
C          6.23875         3.48895        -0.64941
C          7.49907         1.51120         0.01434
C          7.40851         4.32495        -0.64156
C          6.15675         6.51282        -0.54693
C          6.12048         7.89238        -0.10597
C          7.38448         5.76143        -0.53796
C          7.34664         8.60193         0.03348
C          6.08014        10.70631         0.20131
C          6.04705        12.13833         0.30801
C          7.31220         9.99526         0.20391
C          7.29880        12.87116         0.43975
C          6.03915        15.05681         0.57072
C          6.12037        16.44215        -0.02455
C          7.31461        14.28173         0.46256
C          7.37592        17.11158        -0.07389
C          6.21144        19.18147        -0.71563
C          7.42468        18.48443        -0.48184
C          8.61149         2.13845        -0.79535
C          8.65328         3.62781        -0.51422
C          9.93693         1.45852        -0.67117
C          9.83181         4.29819        -0.22062
C          8.59864         6.45564        -0.18804
C          8.60286         7.87102         0.02034
C          9.82035         5.72766        -0.02255
C          9.80929         8.54496         0.35342
C          8.61159        10.74216         0.09846
C          8.52386        12.16662         0.56104
C          9.82895         9.97955         0.56903
C          9.70550        12.85402         0.86609
C          8.53883        14.98267         0.52203
C          8.58631        16.41937         0.25887
C          9.72413        14.25491         0.77198
C          9.81050        17.09741         0.19423
C          8.69020        19.10576        -0.64926
C          9.87564        18.42566        -0.34419
C         11.12326         2.15721        -0.57708
C         11.10709         3.59559        -0.26954
C         12.37609         1.48018        -0.61558
C         12.27616         4.26146        -0.02962
C         11.00599         6.39861         0.37396
C         10.99323         7.78821         0.58304
C         12.24546         5.57752         0.70155
C         12.17577         8.47925         1.13926
C         10.96798        10.66018         0.95669
C         10.88549        12.10175         1.45194
C         12.22800         9.96282         1.17676
C         12.19614        12.83578         1.25569
C         10.99978        14.96915         0.95406
C         11.04648        16.44690         0.68712
C         12.24077        14.15546         0.95861
C         12.38893        17.16468         0.55137
C         11.15855        18.99899        -0.65233
C         12.35576        18.35296        -0.38897
C         13.60586         2.17622        -0.51730
C         13.56068         3.68822        -0.56576
C         14.81334         1.51414        -0.49971
C         14.81335         4.36471        -0.07896
C         13.53336         6.36217         0.59130
C         13.52307         7.71564         1.12430
C         14.75943         5.75988         0.28272
C         14.75973         8.48595         1.20135
C         13.40528        10.61910         1.46653
C         13.41102        12.10948         1.78556
C         14.67343         9.87534         1.71167
C         14.72824        12.79465         1.47400
C         13.50632        14.73278         0.38409
C         13.57955        16.24528         0.30336
C         14.76247        14.06405         0.91423
C         14.75821        16.82820        -0.06435
C         13.59413        18.86426        -0.84877
C         14.79744        18.16688        -0.64672
C         16.10453         2.19815        -0.17196
C         16.02434         3.70744        -0.16493
C         17.29827         1.69910        -0.93560
C         17.25394         4.43972        -0.08808
C         15.99095         6.48407         0.47234
C         15.96975         7.85766         0.90554
C         17.23049         5.82725         0.24701
C         17.22298         8.54895         1.14115
C         15.97060        10.60450         2.02518
C         15.97629        12.20476         2.12237
C         17.22930         9.82827         1.74169
C         17.23710        12.85795         1.57458
C         15.99181        14.72137         0.60792
C         16.07054        16.19260         0.31657
C         17.22071        14.05007         0.80091
C         17.24248        16.56671        -0.55196
C         16.01650        18.63400        -1.18866
C         17.20084        17.86669        -1.19625
C         18.46556         2.42828        -0.92284
C         18.48325         3.79896        -0.41946
C         19.69813         1.87532        -1.41664
C         19.70290         4.50057        -0.34685
C         18.46901         6.53312         0.38743
C         18.46371         7.88421         0.86220
C         19.70274         5.88559         0.07838
C         19.70437         8.55872         1.05021
C         18.48866        10.33631         2.11839
C         18.49245        12.43144         1.99184
C         19.71420         9.85327         1.63192
C         19.70913        12.81504         1.37283
C         18.44757        14.60048         0.28255
C         18.38859        15.80426        -0.52080
C         19.66936        13.92935         0.50382
C         19.57252        16.19081        -1.38344
C         18.40000        18.39870        -1.71914
C         19.60763        17.67945        -1.66478
C         20.92218         2.47022        -1.17398
C         20.94974         3.79828        -0.55585
C         22.11791         1.84191        -1.75158
C         22.14309         4.48819        -0.26337
C         20.91565         6.61295         0.17587
C         20.94598         7.92647         0.68949
C         22.19250         5.99435        -0.30843
C         22.18552         8.57600         0.97676
C         20.93603        10.65834         1.67303
C         20.93236        12.03154         1.55183
C         22.20968         9.85228         1.79500
C         22.20739        12.85143         1.45986
C         20.89728        14.30882        -0.24284
C         20.89889        15.63918        -0.89793
C         22.20340        13.65558         0.10437
C         22.07524        16.33748        -1.06982
C         20.82250        18.30907        -1.92531
C         22.06858        17.68196        -1.64783
C         23.34390         1.93097        -1.14934
C         23.37367         3.82006        -0.09961
C         24.68356         1.67068        -1.61071
C         24.62829         4.42902        -0.18317
C         23.43014         6.55277         0.35207
C         23.40272         7.85889         0.86162
C         24.66559         5.82989         0.21744
C         24.64248         8.45570         1.41919
C         23.48536        10.64228         1.60186
C         23.47199        12.04978         1.71032
C         24.69751         9.93514         1.55387
C         24.72012        12.70509         1.90545
C         23.44012        14.38414        -0.32936
C         23.36538        15.74802        -0.73038
C         24.70154        13.75120        -0.37260
C         24.56095        16.46819        -0.96541
C         23.26016        18.37212        -1.84782
C         24.52287        17.81076        -1.49566
C         25.80922         2.34881        -1.15174
C         25.83258         3.65865        -0.45582
C         27.08271         1.77860        -1.55870
C         27.05161         4.29852        -0.26563
C         25.88743         6.41051         0.54719
C         25.94310         7.69241         1.26692
C         27.10741         5.74346         0.06184
C         27.27004         8.42875         1.48853
C         25.94693        10.63239         1.46691
C         25.93650        12.04724         1.61367
C         27.19042         9.93148         1.29501
C         27.18990        12.87047         1.41981
C         25.89653        14.52562        -0.19064
C         25.82058        15.89918        -0.59935
C         27.09582        14.03535         0.41080
C         27.00592        16.67422        -0.68866
C         25.70418        18.54159        -1.63692
C         26.95885        18.00525        -1.22834
C         28.29365         2.32758        -1.24603
C         28.32707         3.60149        -0.50242
C         29.56841         1.68483        -1.53479
C         29.63510         4.32240        -0.39872
C         28.40911         6.47368         0.17195
C         28.46671         7.81731         0.79020
C         29.68558         5.75465        -0.01185
C         29.65658         8.49363         0.79819
C         28.41384        10.63981         1.15080
C         28.41547        12.05500         1.09835
C         29.66916         9.93745         0.96375
C         29.60143        12.77422         0.84007
C         28.27011        14.80386         0.33290
C         28.25114        16.12589        -0.25081
C         29.54931        14.20054         0.64698
C         29.42181        16.90006        -0.31617
C         28.15423        18.72904        -1.36973
C         29.38950        18.19517        -0.92413
C         30.75208         2.32962        -1.42436
C         30.82092         3.82024        -1.19728
C         32.09665         4.33704        -0.56635
C         30.89399         6.34796         0.19289
C         30.98276         7.75082         0.76579
C         32.10914         5.54597         0.03714
C         32.08620         8.58504         0.18168
C         30.85510        10.64563         0.72062
C         30.85129        12.08664         0.72381
C         32.03874         9.92914         0.26423
C         32.02827        12.85638         0.60752
C         30.74543        14.93122         0.50967
C         30.67078        16.44092         0.40281
C         31.97382        14.24549         0.54309
C         31.91215        17.11995        -0.10766
C         30.60386        18.90385        -1.12144
C         31.84121        18.32565        -0.75929
O         15.19221        10.01942         3.09915
O         10.90735        15.94152         2.07147
O         23.32836         2.45045         0.16450
O         18.54649        11.43764         2.98198
O         21.42563        13.11416        -0.99754
O         29.20410         3.48591         0.71267
O          4.97822         4.99437        -2.02040
O         25.17474         7.66426         2.53748
O         12.68259         7.86232         2.35593
O         10.67159        11.96680         2.85323
O          8.23687         1.97105        -2.21581
H          7.37650         2.42837        -2.34128
O         31.32443         7.58077         2.18495
H         30.50517         7.32910         2.66334
O         22.27023         9.42230         3.19973
H         21.51512         8.81662         3.35769
O         22.11556        13.91098         2.46816
H         21.82231        13.50145         3.31035
O         16.37518         1.82797         1.23902
H         17.24963         2.20536         1.47566
O         15.92610        12.51733         3.52515
H         15.04625        12.20236         3.85204
O          3.34301         7.62054         1.48699
H          4.16008         7.27975         1.90642
O          5.85493        15.28830         2.02289
H          6.73339        15.50747         2.40227
O          2.55083         8.51291        -1.96913
H          1.69920         8.78754        -2.36852
O         12.12966         5.21542         2.12174
H         12.18478         6.06236         2.63060
O          8.83392        10.87229        -1.36744
H          8.04533        11.31928        -1.74353
O         27.60547         8.27169         2.90994
H         26.74121         8.21765         3.38797
O         13.42813        14.32670        -1.03942
H         14.23176        14.66457        -1.49048
O         13.52933         4.02533        -2.00683
H         12.75364         3.56664        -2.39607
O         24.79472        12.43352        -0.68483
H         23.90052        12.07294        -0.85889
O         27.65499         6.52867        -1.12447
O         16.36980        16.81312         1.62764
H         15.56154        16.74220         2.18058
O         22.30565         6.35776        -1.74404
H         23.19286         6.07002        -2.04869
O         30.51860        16.92223         1.79666
H         30.41645        17.89698         1.75346
O         27.47469        13.53158         2.69188
H         26.68027        14.06426         2.92050
O         19.32634        15.54140        -2.68165
H         20.10829        15.71251        -3.24820
O          2.22186        13.96136         1.66636
H          2.44248        14.77179         2.17159
O         13.24271        12.19007         3.23304
H         12.24861        12.04070         3.39394
O          3.69926        16.07736        -2.04458
H          3.60620        16.93958        -2.50380
O         12.67783        17.75786         1.85640
H         12.22571        17.18539         2.52267
O         30.70914         4.44461        -2.51509
H         31.51213         4.21565        -3.02746
O          2.51194        13.16289        -1.87317
H          2.63141        12.30753        -2.33618
O          2.36722         4.17969        -2.49577
H          3.19328         4.59597        -2.83526
O         24.75592        14.00771         2.30518
H         23.82134        14.30994         2.46407
H          0.41029         1.90238         0.68141
H          0.28088         3.79679        -0.84486
H          2.56982         0.88102         1.35489
H          0.37100         5.72306        -0.05563
H          0.20496         8.15708         0.03207
H          0.18670        10.16836        -0.23161
H          0.13959        12.60476        -0.37281
H          0.12895        14.65997         0.03693
H          0.25835        17.05248        -0.36199
H          1.57690        19.15528        -0.59404
H          5.04649         0.68405         0.99718
H          3.74009        20.29994        -0.94958
H          7.60135         0.50993         0.45637
H          6.24334        20.25470        -0.95548
H          9.96365         0.36829        -0.82201
H          8.73916        20.13500        -1.03423
H         12.38494         0.38149        -0.68231
H         11.17628        19.95627        -1.19664
H         14.82488         0.41343        -0.54647
H         13.60305        19.79550        -1.43619
H         17.30111         0.66516        -1.31253
H         16.03169        19.62349        -1.67102
H         19.66137         0.90153        -1.92717
H         18.41672        19.44560        -2.05986
H         22.00547         1.31974        -2.71339
H         20.82479        19.36113        -2.25001
H         24.83949         0.85732        -2.33771
H         23.22782        19.39085        -2.26224
H         27.05224         0.82554        -2.10960
H         25.66597        19.56118        -2.04822
H         29.54694         0.62350        -1.82809
H         28.13493        19.72735        -1.83105
H         31.68967         1.79341        -1.64096
H         33.02470         3.75450        -0.67493
H         33.04734         5.94904         0.44624
H         32.97323         8.08435        -0.23314
H         32.88651        10.51779        -0.11449
H         33.01084        12.36608         0.58807
H         32.91869        14.80090         0.47241
H         32.89533        16.74085         0.20387
H         30.58163        19.88403        -1.61765
H         32.76896        18.85765        -1.01757
