         424
 CSIRO Nanostructure Databank - Neutral Graphene Oxide Data Set
C          1.39973         3.53095         1.94332
C          0.21261         4.15128         1.74377
C          1.27511         6.33989         1.40106
C          0.13633         5.57353         1.53145
C          1.15482         7.78092         0.93044
C          0.10235         8.57439         1.66405
C          1.25883        10.68838         1.22778
C          0.13420         9.93830         1.69907
C          1.23136        12.11908         1.02735
C          0.01217        12.89967         1.16502
C          1.12283        15.00651         0.49146
C         -0.03281        14.24773         0.99781
C          1.20100        16.50065         0.56103
C          0.02742        17.26744         0.70170
C          1.28176        19.34022         0.42220
C          0.07316        18.65397         0.66625
C          1.33884        20.79000         0.36523
C          0.24117        21.56642         0.81797
C          1.36782        23.62006         0.16880
C          0.27317        22.94363         0.75471
C          1.29677        25.03254        -0.11413
C          0.19112        25.83103         0.28732
C          1.00740        27.73685        -0.96827
C          0.08739        27.17056        -0.05313
C          1.06086        29.17172        -1.26962
C         -0.09290        29.92693        -1.15435
C          1.08658        32.04184        -0.80646
C         -0.08963        31.33587        -0.98887
C          1.12634        33.45636        -0.47930
C         -0.05233        34.20085        -0.29944
C          1.18914        36.28865        -0.13885
C         -0.02661        35.58498        -0.12646
C          1.22899        37.72240         0.00153
C          3.88759         3.58468         1.61698
C          2.67001         4.32610         2.09098
C          3.72344         6.39045         1.11607
C          2.56451         5.71526         1.50109
C          3.67951         7.80995         0.80817
C          2.46539         8.51943         0.87602
C          3.65246        10.65099         0.64668
C          2.46703         9.96437         0.89040
C          3.74973        12.11687         0.94418
C          2.41870        12.79327         0.74780
C          3.70948        14.94614         0.48570
C          2.41100        14.21240         0.38912
C          3.70846        16.43528         0.38936
C          2.42356        17.17074         0.35365
C          3.70439        19.26053        -0.10394
C          2.47137        18.58624         0.22909
C          3.69871        20.66554        -0.36534
C          2.49981        21.43919        -0.11410
C          3.62392        23.54010        -0.84277
C          2.50466        22.87227        -0.27722
C          3.60796        24.94696        -1.11232
C          2.31652        25.62088        -0.91658
C          3.82877        27.93085        -1.90340
C          1.99334        26.87353        -1.46858
C          3.68418        29.16450        -1.34388
C          2.36261        29.87417        -1.43316
C          3.58832        31.93342        -0.39645
C          2.36533        31.35666        -1.09018
C          3.62436        33.43846        -0.49691
C          2.39248        34.14385        -0.43099
C          3.65488        36.26258        -0.30462
C          2.40930        35.56496        -0.28838
C          3.67306        37.70945        -0.11348
C          2.41279        38.39917         0.01558
C          6.20006         3.53613         0.77198
C          4.99240         4.24299         1.14855
C          6.14912         6.36551         0.64155
C          4.97760         5.69019         0.99018
C          6.12883         7.80216         0.47148
C          4.89516         8.48860         0.52644
C          6.12247        10.65353         0.15973
C          4.81860         9.91561         0.06256
C          6.11821        12.06820         0.05852
C          4.91465        12.80696         0.26287
C          6.13303        14.90726        -0.16899
C          4.93541        14.19209         0.14405
C          6.12274        16.35695        -0.24712
C          4.94429        17.10543        -0.05592
C          6.12934        19.20011        -0.57521
C          4.91940        18.51887        -0.25652
C          6.11461        20.61551        -0.83944
C          4.87686        21.32111        -0.78964
C          6.08486        23.48602        -1.20318
C          4.79448        22.73080        -1.33899
C          6.08626        24.89024        -1.25194
C          4.83571        25.62881        -1.36765
C          6.21112        27.79561        -1.36513
C          5.02915        27.05410        -1.92838
C          6.15954        29.13573        -1.03944
C          4.90340        29.88321        -0.98464
C          6.12821        31.98745        -0.58111
C          4.89332        31.24245        -0.71665
C          6.11020        33.39963        -0.50819
C          4.85380        34.12860        -0.49913
C          6.12013        36.32712        -0.68774
C          4.85056        35.55309        -0.45284
C          6.13276        37.68737        -0.00581
C          4.87036        38.37976         0.05637
C          8.53423         3.38259        -0.06974
C          7.33765         4.18978         0.39380
C          8.55633         6.33937         0.12613
C          7.38062         5.64529         0.38038
C          8.58858         7.79040         0.17027
C          7.34483         8.50846         0.26434
C          8.56352        10.67357         0.04030
C          7.33639         9.95127         0.18076
C          8.54800        12.02137        -0.28584
C          7.32935        12.75958        -0.23784
C          8.58327        14.88373        -0.55928
C          7.33114        14.18381        -0.36022
C          8.57432        16.31665        -0.61873
C          7.35141        17.04287        -0.51616
C          8.57976        19.16005        -0.83948
C          7.34892        18.46611        -0.65131
C          8.57534        20.58885        -1.01544
C          7.34153        21.28637        -1.10223
C          8.57940        23.46080        -1.08299
C          7.34314        22.73611        -1.52767
C          8.53349        24.83179        -0.88712
C          7.34191        25.57871        -1.11813
C          8.63483        27.72625        -0.69526
C          7.50967        27.04752        -1.43819
C          8.57894        29.12610        -0.49921
C          7.38223        29.84775        -0.68249
C          8.61248        31.97945        -0.40710
C          7.36528        31.26835        -0.53333
C          8.61846        33.41605        -0.42608
C          7.35482        34.14266        -0.44182
C          8.63982        36.32801        -0.40975
C          7.36378        35.52444        -0.43275
C          8.56081        37.48045         0.59384
C          7.29135        38.27147         0.41529
C         11.02211         3.48916         0.12864
C          9.84059         4.13880        -0.00862
C         11.05651         6.29156         0.25116
C          9.81676         5.62377        -0.31212
C         11.06058         7.77236         0.40419
C          9.80000         8.49038         0.15322
C         11.09645        10.63340        -0.16061
C          9.84863         9.97611         0.38616
C         11.07221        12.00151        -0.50678
C          9.77307        12.68326        -0.85521
C         11.03133        14.86658        -0.79800
C          9.79165        14.17921        -0.67416
C         11.03608        16.29572        -0.84194
C          9.80527        17.01188        -0.77979
C         11.04508        19.13666        -0.92694
C          9.80376        18.44054        -0.86074
C         11.04200        20.56766        -0.95646
C          9.82614        21.26865        -1.05949
C         11.08775        23.37680        -0.63656
C          9.89112        22.75117        -1.30842
C         11.02066        24.78129        -0.19435
C          9.73978        25.53471        -0.37006
C         11.03640        27.67110        -0.09710
C          9.78842        27.00439        -0.38125
C         11.05248        29.07719        -0.01728
C          9.75171        29.81579         0.14948
C         11.08115        31.91599        -0.27659
C          9.82089        31.27007        -0.22338
C         11.13920        33.38902        -0.60614
C          9.83736        34.11511        -0.36226
C         11.09050        36.21468         0.06517
C          9.88670        35.51473        -0.19288
C         11.05094        37.65258         0.34221
C          9.83977        38.28732         0.55049
C         13.52181         3.46345        -0.04206
C         12.31388         4.17092         0.04341
C         13.54524         6.30891        -0.06149
C         12.33893         5.58314         0.07046
C         13.57783         7.75540        -0.03145
C         12.38091         8.54032         0.49144
C         13.53247        10.61037        -0.36369
C         12.31336         9.93839        -0.08756
C         13.52151        12.01603        -0.59978
C         12.28007        12.71444        -0.67148
C         13.50048        14.85523        -0.92280
C         12.26889        14.14939        -0.83497
C         13.50359        16.28521        -0.99597
C         12.27459        16.99792        -0.94318
C         13.51172        19.14200        -0.92035
C         12.27437        18.42938        -0.94346
C         13.50357        20.56347        -0.74179
C         12.28727        21.26463        -0.79104
C         13.45984        23.31753         0.15472
C         12.25637        22.68452        -0.51199
C         13.49597        24.81902        -0.00821
C         12.29937        25.52288        -0.08862
C         13.50552        27.65148         0.10604
C         12.27366        26.94801        -0.03767
C         13.51042        29.07108         0.09237
C         12.28090        29.78038         0.01178
C         13.60507        31.85723        -0.45237
C         12.27659        31.21351        -0.12667
C         13.60217        33.37983        -0.30182
C         12.30869        34.01890         0.16258
C         13.53595        36.22634         0.33366
C         12.33253        35.52953         0.13211
C         13.51578        37.66701         0.48008
C         12.30042        38.34467         0.49809
C         16.00294         3.44456        -0.15616
C         14.74552         4.15224        -0.21601
C         15.94971         6.28964        -0.67276
C         14.73183         5.56994        -0.30841
C         16.00246         7.75327        -0.54717
C         14.76595         8.45271        -0.30052
C         15.99276        10.58886        -0.57177
C         14.77725         9.89523        -0.37734
C         15.98833        12.01544        -0.70132
C         14.75343        12.72436        -0.73523
C         15.97466        14.85589        -0.96989
C         14.74266        14.14415        -0.88301
C         15.95657        16.26932        -1.13473
C         14.74531        16.99598        -1.09878
C         15.95815        19.17493        -0.96499
C         14.74315        18.44023        -1.03294
C         15.97647        20.55268        -0.64485
C         14.74744        21.27292        -0.52476
C         15.98690        23.34771        -0.06442
C         14.76237        22.64355        -0.20605
C         15.98072        24.78899         0.15799
C         14.73844        25.51074         0.13959
C         15.96422        27.63507         0.46527
C         14.73708        26.92769         0.22589
C         15.96438        29.05108         0.56733
C         14.75330        29.79027         0.30802
C         15.89734        31.94509         0.84976
C         14.75612        31.17802         0.25140
C         16.08704        33.36618         0.33979
C         14.86519        34.11276        -0.02765
C         15.99541        36.24701         0.44806
C         14.80650        35.55039         0.34031
C         15.96951        37.67882         0.55208
C         14.77311        38.35797         0.58795
C         18.47432         3.45559         0.09722
C         17.21727         4.09431        -0.21370
C         18.49565         6.28611        -0.42662
C         17.26923         5.50933        -0.62173
C         18.48560         7.69314        -0.60563
C         17.22251         8.42368        -0.65789
C         18.45055        10.57760        -0.73335
C         17.24346         9.87329        -0.65061
C         18.46068        12.00882        -0.73330
C         17.22126        12.73056        -0.78419
C         18.47000        14.86012        -0.91335
C         17.22156        14.14758        -0.90108
C         18.49230        16.26926        -1.06992
C         17.23131        16.96667        -1.34204
C         18.48013        19.16067        -0.83317
C         17.22993        18.50607        -1.23691
C         18.44138        20.50205        -0.40475
C         17.22068        21.22972        -0.39525
C         18.47315        23.31065         0.10279
C         17.21672        22.63526        -0.13001
C         18.52129        24.82633         0.12419
C         17.18202        25.50051         0.32893
C         18.42861        27.60495         0.83355
C         17.18559        26.90009         0.55400
C         18.43528        29.02231         0.96873
C         17.19207        29.76875         0.81380
C         18.35602        31.91926         1.31945
C         17.17534        31.15792         0.88735
C         18.41379        33.37419         1.10231
C         17.24321        34.05754         0.58646
C         18.44357        36.23781         1.01425
C         17.33100        35.53798         0.25291
C         18.40574        37.63818         1.13595
C         17.28622        38.40688         0.47766
C         19.64135         4.16068         0.12474
C         20.89473         6.31041        -0.07138
C         19.68757         5.59033        -0.11467
C         20.90590         7.67674        -0.35197
C         19.72180         8.38752        -0.59513
C         20.93100        10.62289        -0.46404
C         19.75271         9.84769        -0.99783
C         20.90201        11.97031        -0.39835
C         19.68961        12.72461        -0.66222
C         20.91995        14.89424        -0.77793
C         19.70237        14.14344        -0.76481
C         20.92438        16.26140        -0.89163
C         19.70815        17.00658        -1.01637
C         20.92503        19.22175        -0.87130
C         19.70300        18.43981        -0.92301
C         20.92518        20.51161        -0.45985
C         19.69468        21.10894         0.17923
C         20.87182        23.33062         0.58963
C         19.65815        22.61981         0.22488
C         20.85268        24.61800         0.99765
C         19.54294        25.35808         1.13181
C         20.82096        27.56139         1.26852
C         19.63101        26.87343         1.02696
C         20.83883        28.95591         1.35827
C         19.65571        29.69514         1.25296
C         20.88542        31.96591         1.46721
C         19.66360        31.15614         1.53220
C         20.82284        33.32515         1.54078
C         19.58660        34.05793         1.40541
C         20.59951        36.22477         2.14236
C         19.56140        35.52149         1.49990
C         20.53820        37.60902         2.28867
C         19.44882        38.31927         1.77943
O         18.80814        31.51602         2.67357
O          2.74056        27.34398        -2.56295
O         10.89709         6.85299         1.59198
O          1.62562        14.52127        -0.81356
O         14.30495        33.99466        -1.41408
O         16.59368         5.78152        -1.89102
O         10.12704        24.98801         0.96956
O          2.45430        30.91789        -2.47152
O         17.27713        17.82323        -2.53115
O          3.86122        15.73288         1.71801
O         12.61104         8.75532         1.92761
H         12.32920         7.91910         2.37144
O          4.57828        22.54488        -2.79900
H          5.45441        22.28393        -3.17498
O         11.43100        33.53589        -2.02360
H         10.87767        32.89671        -2.51841
O         17.65464        35.65139        -1.16341
H         17.60742        36.61371        -1.38639
O          5.30116        26.81368        -3.36602
H          4.42883        26.61825        -3.77804
O          2.84993         4.50898         3.55327
H          2.04788         4.96905         3.88120
O         13.81381        31.55742        -1.87150
H         14.17275        32.38562        -2.27679
O         10.13311        22.89865        -2.76052
H          9.30597        22.58720        -3.20642
O          6.12392        36.63312        -2.12759
H          7.00852        37.03738        -2.31201
O          9.47427        29.78994         1.60946
H          9.50146        28.85006         1.89100
O         15.51774        32.12951         2.27819
H         16.34798        32.17339         2.80215
O          7.39547        22.68391        -3.05198
H          7.32288        23.61731        -3.35489
O         13.29466        23.08247         1.59635
H         12.46576        23.52962         1.87328
O          9.63201        12.48300        -2.31794
H         10.37132        12.96266        -2.74947
O          0.68324         7.68717        -0.46634
H          0.70557         8.59355        -0.84167
O         12.17943        33.64378         1.55918
H         11.33785        34.01401         1.90011
O         19.91373         9.83087        -2.46261
H         19.89105        10.76297        -2.76719
O          3.33662        31.63773         1.02621
H          4.06831        32.03327         1.54589
O          4.05548        12.23176         2.39083
H          4.14317        13.18838         2.59659
O         18.99218        25.24863        -1.19032
H         18.35933        24.91597        -1.86037
O          4.53561         9.82623        -1.40155
H          5.28318         9.33775        -1.80884
O         17.61390        38.53373        -0.93020
H         18.51443        38.91421        -0.99594
O          9.97946        10.11225         1.84930
H         10.84840         9.71145         2.10254
O          8.61936         2.14099         0.63069
H          8.74549         2.33488         1.58193
O         19.73725        20.68510         1.59508
H         19.76343        19.70446         1.60004
O          9.91143         5.78166        -1.76263
H          9.13242         5.34829        -2.16942
O          7.94917        27.07190        -2.84889
H          7.13565        26.96532        -3.40005
O         19.02177        25.07372         2.45849
H         19.69409        25.34367         3.11750
O          8.49573        36.87993         1.92910
H          8.42997        37.60822         2.58144
O          8.79187        36.95567        -1.73358
H          9.20971        36.29668        -2.32814
H          1.44520         2.44434         2.10931
H         -0.71996         3.56899         1.71018
H         -0.85381         6.02544         1.38137
H         -0.78239         8.04513         2.04797
H         -0.72204        10.47785         2.13130
H         -0.89740        12.38419         1.50573
H         -0.95725        14.78736         1.25009
H         -0.94100        16.76889         0.84354
H         -0.86462        19.21135         0.78947
H         -0.64143        21.07610         1.24841
H         -0.59259        23.50845         1.12359
H         -0.57623        25.40188         0.94450
H         -0.71923        27.78416         0.37138
H         -1.06140        29.40905        -1.09666
H         -1.06205        31.83413        -0.87394
H         -1.02710        33.69464        -0.31175
H         -0.96971        36.13589         0.00072
H          0.27751        38.26418         0.10744
H          3.91311         2.49141         1.74487
H          2.42635        39.49221         0.13873
H          6.19678         2.43587         0.80203
H          4.86292        39.44361         0.34111
H          8.35452         3.11935        -1.15421
H          7.26659        39.30445         0.80237
H         11.02049         2.39681         0.27000
H          9.82662        39.33034         0.90502
H         13.51927         2.36476         0.00673
H         12.28561        39.43274         0.66140
H         15.97622         2.36860         0.07470
H         14.76824        39.45717         0.64498
H         18.47249         2.37829         0.31992
H         17.19943        39.43674         0.92470
H         20.58608         3.64853         0.35951
H         21.83642         5.78524         0.14307
H         21.87494         8.19288        -0.37425
H         21.87229        10.10002        -0.24523
H         21.80772        12.51181        -0.09026
H         21.88126        14.36971        -0.69454
H         21.88541        16.79327        -0.87427
H         21.85958        18.77077        -1.23602
H         21.86433        21.08283        -0.47026
H         21.82270        22.77820         0.59912
H         21.78244        25.07801         1.36394
H         21.76406        27.01741         1.41280
H         21.78963        29.46217         1.57344
H         21.86286        31.47036         1.38213
H         21.76227        33.89616         1.56194
H         21.46077        35.67945         2.55186
H         21.35069        38.14315         2.80024
H         19.40386        39.41376         1.88138
