         404
 CSIRO Nanostructure Databank - Neutral Graphene Oxide Data Set
C          2.26916         3.98340         4.13242
C          1.25792         4.79495         4.68683
C          2.31350         6.87196         3.75575
C          1.22703         6.15654         4.49812
C          1.84386         7.99880         2.84344
C          0.55272         8.49766         2.90323
C          1.07482        10.10938         1.16844
C          0.14652         9.49919         2.00113
C          0.84933        12.20584        -0.02039
C         -0.30775        12.97148        -0.27832
C          1.08246        14.91341        -0.62073
C         -0.19405        14.30613        -0.57970
C          1.16465        16.32044        -0.92129
C          0.01977        17.04920        -1.43384
C          1.18277        19.20790        -1.27173
C          0.03246        18.38599        -1.66516
C          1.30612        20.64107        -1.66783
C          0.15170        21.37502        -2.01656
C          1.39766        23.46690        -1.93003
C          0.20414        22.74706        -2.17652
C          1.42830        24.90919        -1.98167
C          0.28762        25.66185        -2.36858
C          1.43285        27.76763        -1.91473
C          0.29384        27.03872        -2.35093
C          1.42357        29.20373        -1.83671
C          0.27115        29.95987        -2.19973
C          1.36434        32.06664        -1.61846
C          0.23709        31.32896        -2.09669
C          1.37094        33.49266        -1.65297
C          0.21195        34.31516        -1.86088
C          1.54664        36.44482        -2.14597
C          0.25475        35.67944        -1.94576
C          1.51081        37.90616        -1.75378
C          4.33251         3.73014         2.77121
C          3.27847         4.55515         3.30354
C          4.35303         6.57929         2.26713
C          3.23736         5.93345         3.03174
C          3.97704         7.88002         1.59360
C          2.77857         8.57377         1.92093
C          3.48654        10.47914         0.46588
C          2.45700         9.76283         1.17718
C          3.38172        11.89133        -0.03735
C          2.14485        12.74791        -0.03224
C          3.53519        14.84217        -0.33280
C          2.26058        14.15088        -0.33889
C          3.58970        16.25254        -0.49670
C          2.38952        16.97316        -0.79234
C          3.74656        19.07594        -1.10040
C          2.42091        18.44126        -0.87700
C          3.79287        20.56157        -1.34391
C          2.52536        21.31898        -1.50489
C          3.79801        23.43822        -1.29400
C          2.57753        22.73882        -1.58873
C          3.79830        24.85808        -1.28195
C          2.61089        25.60427        -1.60811
C          3.75906        27.73728        -1.07294
C          2.60175        27.03648        -1.54326
C          3.74371        29.17076        -0.92377
C          2.56511        29.90673        -1.33757
C          3.61731        32.00130        -0.50569
C          2.51780        31.31681        -1.21045
C          3.63436        33.52409        -0.49805
C          2.63301        34.19410        -1.37342
C          3.70218        36.36405        -0.62857
C          2.72437        35.68289        -1.53126
C          3.68245        37.87295        -0.54661
C          2.52436        38.56576        -1.17025
C          6.32605         3.48043         1.31803
C          5.26506         4.22891         1.85366
C          6.00408         6.17223         0.32202
C          5.04181         5.60043         1.33674
C          5.93974         7.64741         0.06930
C          4.85195         8.44111         0.67643
C          5.95931        10.52366        -0.01741
C          4.71858         9.81833         0.28458
C          5.98347        11.93424         0.08050
C          4.71525        12.65559        -0.12383
C          5.95838        14.81485         0.13822
C          4.75262        14.13575        -0.07298
C          6.02051        16.23568        -0.00247
C          4.84003        16.95628        -0.34909
C          6.11715        19.08056        -0.39155
C          4.92217        18.36440        -0.57323
C          6.16667        20.52117        -0.58100
C          5.02780        21.26733        -0.97909
C          6.19026        23.41254        -0.69082
C          5.00916        22.70831        -0.98036
C          6.20123        24.83747        -0.62817
C          4.98049        25.57527        -0.91134
C          6.09847        27.66883        -0.22743
C          4.92614        26.97935        -0.78794
C          6.07635        29.14744         0.01834
C          4.87541        29.87860        -0.42925
C          6.05640        31.98613         0.12261
C          4.88513        31.28276        -0.27690
C          6.00877        33.45099         0.30340
C          4.88869        34.23547        -0.22446
C          6.13987        36.36685        -0.03501
C          4.95365        35.62598        -0.31957
C          6.14105        37.81843        -0.07374
C          4.95989        38.53712        -0.33315
C          8.55298         3.35895         0.26220
C          7.35311         4.08820         0.53143
C          8.44758         6.11507        -0.42190
C          7.24516         5.42711         0.07940
C          8.44591         7.62954        -0.59857
C          7.16489         8.38528        -0.39713
C          8.42338        10.50048        -0.01261
C          7.18913         9.83031        -0.11898
C          8.41484        11.90717         0.21443
C          7.20486        12.62072         0.23177
C          8.49083        14.81577         0.45689
C          7.17894        14.07692         0.65620
C          8.49156        16.23374         0.38501
C          7.26177        16.94489         0.14183
C          8.51066        19.07016         0.23161
C          7.29694        18.35848        -0.00554
C          8.51046        20.49443         0.16304
C          7.38769        21.20430        -0.27000
C          8.61117        23.41544        -0.02085
C          7.49778        22.65801        -0.67806
C          8.61675        24.80610        -0.02269
C          7.40374        25.51508        -0.33993
C          8.61066        27.74871         0.10883
C          7.41069        26.98431        -0.34702
C          8.54282        29.19886         0.41796
C          7.34674        29.89058         0.23160
C          8.54595        32.03501         0.46715
C          7.29846        31.31516         0.32354
C          8.57714        33.43186         0.33037
C          7.35613        34.21840         0.40087
C          8.58002        36.37454         0.19227
C          7.36962        35.67415         0.13777
C          8.59337        37.81005         0.27448
C          7.37036        38.50257         0.13875
C         10.94325         3.29448        -0.30972
C          9.74424         4.00359        -0.11562
C         10.94295         6.15850        -0.35834
C          9.75677         5.44802        -0.26628
C         10.96111         7.62002        -0.40890
C          9.71189         8.37121        -0.40705
C         10.91112        10.50689        -0.25835
C          9.66206         9.73933        -0.14958
C         10.97074        11.89620         0.28626
C          9.67752        12.62604         0.50259
C         10.97199        14.76170         0.52133
C          9.72418        14.10551         0.50327
C         10.99130        16.22263         0.90543
C          9.71924        16.95757         0.52039
C         10.97819        19.09125         0.69230
C          9.72302        18.35760         0.50269
C         10.98588        20.47029         0.81434
C          9.70749        21.20573         0.68442
C         11.01904        23.41547         0.73699
C          9.73884        22.70251         0.58671
C         11.00305        24.84650         0.70865
C          9.79402        25.51919         0.42655
C         11.00422        27.73303         0.99216
C          9.72424        26.95340         0.67896
C         11.01031        29.18813         0.80886
C          9.78095        29.89589         0.64168
C         11.04151        32.01119         0.69743
C          9.78928        31.31424         0.59574
C         11.08566        33.42740         0.53240
C          9.85376        34.11834         0.13328
C         11.09005        36.34067         0.50677
C          9.85924        35.65826         0.11280
C         11.05343        37.76834         0.66586
C          9.82944        38.47290         0.49409
C         13.35138         3.26713        -0.65101
C         12.18343         3.97570        -0.45420
C         13.41235         6.08743        -0.14216
C         12.21129         5.43859        -0.33214
C         13.43565         7.55675         0.02523
C         12.17939         8.28128        -0.31196
C         13.49769        10.48125        -0.32558
C         12.20217         9.73899        -0.43226
C         13.46742        11.89563         0.16092
C         12.21669        12.67421         0.15988
C         13.50123        14.78162         0.33420
C         12.22248        14.05151         0.38134
C         13.47748        16.24462         0.25625
C         12.24067        16.96572         0.47984
C         13.41476        19.14706         0.21076
C         12.21997        18.34688         0.55967
C         13.57094        20.51088         0.81026
C         12.22541        21.23034         1.13960
C         13.30741        23.51413         1.43225
C         12.16723        22.72164         1.13402
C         13.45416        24.86327         1.09204
C         12.23292        25.58627         0.89132
C         13.48909        27.70299         1.01180
C         12.25914        26.99080         0.92659
C         13.45972        29.11047         1.09526
C         12.24683        29.85657         0.93666
C         13.48687        32.01818         1.00087
C         12.25978        31.29902         0.89164
C         13.49733        33.44313         0.93755
C         12.27928        34.15469         0.68781
C         13.49394        36.30503         0.97194
C         12.28191        35.60729         0.68956
C         13.48224        37.74062         1.07724
C         12.26176        38.44402         0.94376
C         15.54944         3.70744        -1.79154
C         14.72214         3.86358        -0.53311
C         16.02017         6.06611        -0.09886
C         14.69263         5.33735        -0.06096
C         16.06869         7.56626        -0.08495
C         14.77219         8.28126         0.04930
C         16.05104        10.51326        -0.09520
C         14.78625         9.75012        -0.25078
C         16.03227        11.92130        -0.09242
C         14.77469        12.62860         0.25861
C         16.00704        14.78726         0.13446
C         14.70497        14.09945         0.21781
C         15.96977        16.30285         0.00290
C         14.64610        16.94327        -0.04838
C         15.94720        19.09294        -0.32428
C         14.65068        18.39558        -0.24210
C         16.02667        20.51458        -0.01106
C         14.85275        21.21966         0.52326
C         16.13344        23.37397         0.47549
C         15.15080        22.46977         1.02643
C         15.98909        24.81969         0.70708
C         14.75596        25.51716         1.00534
C         15.95131        27.67685         0.90570
C         14.74464        26.95152         0.98911
C         15.93387        29.18141         0.76880
C         14.73517        29.82553         1.46579
C         15.91739        32.00955         1.28332
C         14.71873        31.31886         1.20889
C         15.95135        33.44834         1.23909
C         14.71883        34.15784         1.10975
C         15.93593        36.28945         1.35340
C         14.71717        35.58852         1.13999
C         15.92066        37.72755         1.44580
C         14.69643        38.42230         1.32454
C         17.84063         3.97124        -2.74495
C         16.78993         4.33750        -1.82689
C         18.42163         5.71438        -0.69202
C         17.09977         5.31888        -0.81790
C         18.55992         7.76577        -0.16923
C         17.23919         8.33787        -0.18151
C         18.45356        10.50270        -0.58308
C         17.24455         9.79295        -0.28400
C         18.42100        11.93009        -0.67506
C         17.21694        12.64475        -0.36699
C         18.33368        14.80201        -0.79087
C         17.20641        14.07748        -0.35802
C         18.28759        16.24758        -0.92727
C         17.13647        16.97647        -0.59051
C         18.25015        19.14243        -1.18452
C         17.11351        18.41046        -0.66060
C         18.20638        20.56743        -1.33238
C         17.26271        21.35185        -0.47475
C         18.21684        23.73606        -0.76024
C         17.14900        22.84847        -0.35283
C         18.32476        25.01602        -0.12711
C         17.16721        25.59498         0.49420
C         18.41327        27.75058         0.70497
C         17.17452        27.00909         0.72202
C         18.43305        29.15338         1.06702
C         17.21936        29.82718         1.21646
C         18.47605        32.00661         1.55790
C         17.17283        31.25635         1.53593
C         18.47405        33.44911         1.09662
C         17.17016        34.16551         1.33791
C         18.40694        36.29937         1.62424
C         17.17070        35.57793         1.43263
C         18.36536        37.72409         1.75866
C         17.13483        38.41352         1.65997
C         19.10875         4.50663        -2.66048
C         20.65704         6.22072        -1.62978
C         19.44252         5.44802        -1.63938
C         20.78379         7.51931        -1.17362
C         19.69280         8.35791        -0.72719
C         20.78956        10.53759        -1.30391
C         19.66218         9.80034        -0.89783
C         20.75515        11.92478        -1.37971
C         19.58624        12.65246        -1.06886
C         20.61756        14.83689        -1.66498
C         19.52846        14.09868        -1.17800
C         20.55298        16.22112        -1.83646
C         19.40302        16.94670        -1.50288
C         20.25090        19.02131        -2.58401
C         19.31650        18.38122        -1.74379
C         20.10150        20.36432        -2.89388
C         19.10529        21.12265        -2.25950
C         20.37962        24.17937        -1.85772
C         19.21554        23.42238        -1.71369
C         20.56803        25.31394        -1.07152
C         19.52413        25.78128        -0.25543
C         20.84491        27.78371         0.50523
C         19.60692        27.10037         0.34957
C         20.88688        29.09787         0.92923
C         19.70326        29.84244         1.16658
C         20.91007        32.02739         1.40831
C         19.74460        31.26516         1.35597
C         20.88205        33.43436         1.61866
C         19.71638        34.17847         1.55475
C         20.82525        36.37247         1.97475
C         19.66182        35.61915         1.72376
C         20.77576        37.76755         2.10764
C         19.57178        38.44210         1.99539
O          9.35914        22.01452         1.87319
O          8.37441         6.76349        -1.75996
O          3.95866        19.58471        -2.46301
O         10.06725        27.30770         2.05145
O         15.47805         5.50870         1.16536
O          4.05067        12.10578        -1.32069
O         10.39332        12.00128         1.63862
O          3.35659        34.81576        -2.52436
O          9.97634        34.86169        -1.12922
O         14.38503        22.93706         2.09531
O          4.70390         5.57376        -0.06926
O         13.05611        20.59830         2.16099
O         19.00544        22.44276        -2.68760
O          0.53145        10.87360         0.14928
O         14.24531        10.18916        -1.56394
O         17.20912        20.76047         0.85367
O         11.48456        10.31542        -1.58897
O          3.11265        32.79383         0.64401
O         13.70831        19.00800        -1.22082
O         17.81902        31.68664         2.80891
O          6.12429         7.99902        -1.33971
O          1.58515        19.07017         0.15175
O         14.15400        12.03684         1.46202
O         14.04468         8.00891         1.30364
O          3.16521        37.00087         0.56391
O          5.82612        28.18877         1.12427
O         16.27127        15.65381         1.29049
O          6.53584        33.90383         1.58172
O          8.37129        27.53006        -1.33492
O         18.73604         6.50755         0.42200
O         11.03130        16.23724         2.37757
H         10.26004        15.72541         2.70149
O         15.77962        29.47151        -0.65687
H         16.53953        29.07233        -1.13064
O         15.40331         3.06887         0.47870
H         15.73080         3.70630         1.16169
O          1.73658        36.47775        -3.59208
H          2.26673        35.67582        -3.81703
O          3.16116         7.54887         4.79619
H          3.22846         6.92609         5.55239
O          5.38130         6.93241         3.26152
H          4.89361         7.39136         3.99231
O          6.99160        14.03083         2.12050
H          7.75877        13.55064         2.50054
O          7.89704        22.58433        -2.11672
H          7.14900        22.17142        -2.60111
O         18.58340        33.35583        -0.37082
H         18.64719        34.26916        -0.72238
O         14.94102        29.62439         2.89056
H         14.18831        30.02561         3.37237
H          2.27948         2.90361         4.33296
H          0.47340         4.32013         5.29450
H          0.45191         6.75176         5.00125
H         -0.18876         8.06682         3.58855
H         -0.90967         9.78899         1.93346
H         -1.28502        12.47328        -0.25370
H         -1.10125        14.89193        -0.76785
H         -0.87072        16.48460        -1.74077
H         -0.81861        18.85411        -2.17932
H         -0.80783        20.85781        -2.15007
H         -0.71753        23.27708        -2.44824
H         -0.62592        25.14899        -2.69599
H         -0.61517        27.56782        -2.66424
H         -0.62090        29.44651        -2.58140
H         -0.66682        31.86768        -2.41133
H         -0.77316        33.82470        -1.88172
H         -0.68606        36.23393        -2.07944
H          0.65357        38.47756        -2.14227
H          4.39553         2.68128         3.09673
H          2.46134        39.65744        -1.03739
H          6.46691         2.43910         1.64378
H          5.02165        39.62318        -0.49911
H          8.57307         2.27868         0.46840
H          7.36734        39.60169         0.18157
H         10.93593         2.19501        -0.29002
H          9.83864        39.57045         0.56461
H         13.30337         2.16993        -0.72060
H         12.25859        39.53911         1.04441
H         15.29080         2.93641        -2.53151
H         14.69065        39.51902         1.40823
H         17.61083         3.23571        -3.52899
H         17.12577        39.50974         1.75197
H         19.86816         4.23405        -3.40789
H         21.52030         5.79358        -2.16543
H         21.75040         8.01012        -1.36632
H         21.72436        10.01617        -1.55031
H         21.66945        12.44963        -1.68606
H         21.54779        14.32759        -1.94840
H         21.43648        16.73473        -2.23793
H         21.06026        18.45154        -3.05773
H         20.77463        20.85701        -3.60676
H         21.12761        23.88215        -2.60361
H         21.48920        25.90036        -1.18412
H         21.78747        27.25862         0.29904
H         21.86496        29.58683         1.03531
H         21.89418        31.54083         1.35486
H         21.84220        33.92955         1.82307
H         21.79741        35.86935         2.06223
H         21.70354        38.32478         2.29802
H         19.53270        39.53597         2.09642
