         424
 CSIRO Nanostructure Databank - Neutral Graphene Oxide Data Set
C          1.34330         3.48529         0.67045
C          0.13540         4.17245         0.80315
C          1.26426         6.31858         0.45155
C          0.08967         5.55981         0.70585
C          1.23999         7.74266         0.36001
C          0.06017         8.50159         0.72594
C          1.05478        10.55016        -0.24948
C         -0.01394         9.83628         0.53145
C          1.08273        12.05436         0.04210
C         -0.17028        12.78765        -0.37998
C          1.10618        14.88568        -0.32132
C         -0.14833        14.13384        -0.41665
C          1.10065        16.36606         0.02517
C         -0.16270        17.13110        -0.28908
C          1.04005        19.29121        -0.45742
C         -0.19720        18.46687        -0.38700
C          1.07551        20.69600         0.00651
C         -0.11810        21.37594         0.32178
C          1.10080        23.45780         0.66668
C         -0.10900        22.72244         0.63902
C          1.11384        24.87821         0.93028
C         -0.12316        25.62459         0.89512
C          0.99598        27.74338         1.46331
C         -0.17763        26.97298         1.03755
C          1.00285        29.24218         1.29892
C         -0.15961        29.94595         0.70956
C          1.11798        32.03399         0.36864
C         -0.09974        31.24972         0.33669
C          1.13034        33.39189         0.08362
C         -0.04721        34.12513        -0.31110
C          1.32078        36.01723        -1.08047
C          0.05100        35.36872        -0.86649
C          1.39841        37.19438        -1.86481
C          3.77713         3.50287         0.31848
C          2.54289         4.18799         0.41623
C          3.69973         6.33406         0.00749
C          2.50899         5.62228         0.27803
C          3.67051         7.76243        -0.11639
C          2.43183         8.45881         0.03062
C          3.60940        10.59482        -0.23278
C          2.41260         9.88361        -0.09641
C          3.61109        12.10012        -0.02951
C          2.32303        12.71636        -0.60672
C          3.56421        14.94773        -0.82560
C          2.29561        14.22705        -0.43669
C          3.56201        16.41860        -0.49621
C          2.36607        17.07819        -0.40639
C          3.59806        19.27649        -0.23510
C          2.34965        18.55104        -0.50842
C          3.57066        20.66347        -0.02157
C          2.31421        21.37344         0.12314
C          3.56902        23.47926         0.54560
C          2.32767        22.76619         0.45063
C          3.57511        24.87252         0.83849
C          2.33556        25.55844         1.05960
C          3.59600        27.75139         1.30126
C          2.33994        26.98640         1.44489
C          3.59665        29.16458         1.22699
C          2.32546        29.94187         1.20546
C          3.65746        32.00857         0.74328
C          2.40576        31.23560         0.41459
C          3.66185        33.46473         0.58042
C          2.38512        34.19114         0.21291
C          3.75950        36.12156        -0.67928
C          2.50240        35.47519        -0.52330
C          3.83583        37.26187        -1.57163
C          2.62548        37.75443        -2.14220
C          6.21883         3.50948         0.03187
C          4.98022         4.19222         0.09534
C          6.14316         6.31786        -0.34089
C          4.95477         5.62787        -0.08914
C          6.10125         7.75371        -0.79994
C          4.85364         8.49952        -0.40108
C          6.10127        10.63602        -0.82567
C          4.83650         9.89612        -0.42421
C          6.08763        12.12529        -0.54076
C          4.87095        12.81893        -0.47335
C          6.06411        14.95504        -0.54557
C          4.85380        14.23056        -0.49879
C          6.05360        16.42435        -0.47947
C          4.82495        17.13308        -0.47700
C          6.05343        19.25446        -0.15406
C          4.82336        18.54808        -0.27747
C          6.04243        20.66966         0.03162
C          4.80894        21.37211         0.12948
C          6.04488        23.46684         0.51470
C          4.80561        22.77516         0.38102
C          6.03980        24.89000         0.72643
C          4.82204        25.58413         0.89095
C          6.02646        27.72813         1.08222
C          4.82032        27.02653         1.10802
C          6.04507        29.16447         1.41363
C          4.80041        29.89627         1.17078
C          6.12864        32.03766         1.00483
C          4.84507        31.32615         0.99100
C          6.15002        33.41944         0.55919
C          4.94682        34.10856         0.28412
C          6.20107        36.11169        -0.13230
C          4.94804        35.46205        -0.15329
C          6.28137        37.75950        -1.46857
C          5.04107        37.83154        -2.10443
C          8.67217         3.52886        -0.15367
C          7.42397         4.20427        -0.14624
C          8.60816         6.36069        -0.45744
C          7.39756         5.63910        -0.33240
C          8.57168         7.81474        -0.54772
C          7.39067         8.49730        -0.52754
C          8.61316        10.72871        -0.54444
C          7.33854         9.97446        -0.21751
C          8.58860        12.12400        -0.61555
C          7.31023        12.84316        -0.59496
C          8.54880        15.04312        -0.84711
C          7.28954        14.25127        -0.58576
C          8.54420        16.35325        -0.06630
C          7.26804        17.12903        -0.30509
C          8.53348        19.26111        -0.11592
C          7.28405        18.53391        -0.18112
C          8.52954        20.65449         0.03039
C          7.28101        21.37473         0.16301
C          8.56241        23.44606         0.76493
C          7.27135        22.75908         0.40377
C          8.52159        24.94070         0.55936
C          7.30199        25.59873         0.64754
C          8.58232        27.82942         0.73702
C          7.24698        27.06416         0.63931
C          8.58786        29.13691         1.39009
C          7.33714        29.92201         1.61430
C          8.57202        32.14137         1.25526
C          7.33067        31.40063         1.34748
C          8.62089        33.42343         0.62169
C          7.40273        34.07226         0.31123
C          8.67304        36.07027        -0.50869
C          7.43663        35.43591        -0.11638
C          8.71616        37.24195        -1.35876
C          7.59417        37.86131        -1.97357
C         11.12982         3.56017        -0.12447
C          9.87831         4.23468        -0.21850
C         11.07538         6.39012        -0.22278
C          9.86162         5.67939        -0.32103
C         11.03585         7.89092        -0.05710
C          9.87723         8.52583        -0.82108
C         11.05940        10.71965        -0.68300
C          9.85191        10.02836        -0.63061
C         11.07591        12.15333        -0.63720
C          9.82430        12.86116        -0.63847
C         11.03673        14.99587        -0.53083
C          9.82884        14.27430        -0.62224
C         11.03071        16.44053        -0.46000
C          9.80618        17.14622        -0.32428
C         11.00758        19.29241        -0.38080
C          9.78226        18.54781        -0.26005
C         10.98219        20.69588        -0.33010
C          9.77109        21.39569        -0.04301
C         11.01427        23.52526         0.16677
C          9.78511        22.78532         0.18627
C         11.01868        24.92970         0.47381
C          9.77978        25.64826         0.58678
C         11.05557        27.71287         1.03880
C          9.81864        27.03983         0.79954
C         11.06693        29.07479         1.45837
C          9.79472        29.58352         1.87411
C         11.07732        32.13713         1.38780
C          9.79495        31.67640         1.77793
C         11.09618        33.45398         0.78387
C          9.86945        34.09554         0.42668
C         11.15604        35.95393        -0.57756
C          9.89276        35.38276        -0.21589
C         11.18333        37.16412        -1.34314
C         10.00133        37.72550        -1.76746
C         13.59125         3.58845         0.02760
C         12.33072         4.26278        -0.09380
C         13.53998         6.42795        -0.09088
C         12.31256         5.70850        -0.12530
C         13.53680         7.86397        -0.25598
C         12.33963         8.55757        -0.38512
C         13.58350        10.71012        -0.53915
C         12.34531         9.95771        -0.93085
C         13.60486        12.16992        -0.87849
C         12.29067        12.87949        -0.63310
C         13.52287        15.02220        -0.47291
C         12.28843        14.29158        -0.54958
C         13.51890        16.44208        -0.41890
C         12.26545        17.15840        -0.46756
C         13.49652        19.29935        -0.43645
C         12.25889        18.57705        -0.46212
C         13.50122        20.72367        -0.46394
C         12.21537        21.47984        -0.69837
C         13.46061        23.56610        -0.01184
C         12.23041        22.87533        -0.12691
C         13.48251        24.94565         0.33769
C         12.25269        25.63247         0.55468
C         13.51019        27.74702         1.01196
C         12.28385        27.02684         0.86657
C         13.50819        29.15336         1.26261
C         12.26350        29.86254         1.46321
C         13.53899        32.00802         1.48362
C         12.24685        31.30690         1.49635
C         13.55947        33.50114         1.02970
C         12.32620        34.10294         0.52206
C         13.64866        35.95666        -0.47302
C         12.37016        35.31871        -0.19604
C         13.71772        37.15713        -1.19507
C         12.47955        37.82382        -1.74107
C         16.04713         3.60089         0.22043
C         14.78505         4.28198         0.03950
C         15.99508         6.43783        -0.15575
C         14.78580         5.73324        -0.07014
C         16.01113         7.86812        -0.19224
C         14.79059         8.57335        -0.28121
C         16.01133        10.71632        -0.11242
C         14.77882        10.01618        -0.30911
C         15.96280        12.17790         0.23667
C         14.77667        12.91395        -0.31300
C         16.00261        15.03179        -0.14366
C         14.76749        14.30188        -0.31250
C         15.99708        16.45287        -0.15052
C         14.73923        17.16291        -0.26960
C         15.94773        19.33250        -0.17329
C         14.73125        18.59120        -0.29616
C         15.93586        20.71927        -0.22994
C         14.70583        21.42797        -0.37959
C         15.89475        23.59520        -0.22721
C         14.70097        22.88646        -0.25076
C         15.93635        24.96825         0.16088
C         14.72100        25.65135         0.45425
C         15.99140        27.70112         0.96085
C         14.74366        27.03443         0.81772
C         16.00221        29.12924         1.16998
C         14.77221        29.85057         1.26239
C         16.01889        31.97505         1.16908
C         14.80291        31.27113         1.33632
C         16.03825        33.40872         0.90582
C         14.84194        34.08281         0.62489
C         16.11429        36.00733        -0.20428
C         14.86232        35.35200        -0.01489
C         16.15877        37.21104        -0.95949
C         14.97249        37.75249        -1.44842
C         18.50161         3.60267         0.38744
C         17.24123         4.26503         0.14262
C         18.49997         6.45706         0.08926
C         17.28238         5.68955        -0.36223
C         18.48885         7.87656         0.07522
C         17.25078         8.59062        -0.10353
C         18.48237        10.74322         0.08725
C         17.23320        10.01617        -0.03691
C         18.48118        12.18168         0.03186
C         17.25804        12.90169        -0.00215
C         18.47869        15.03384        -0.13092
C         17.24315        14.31373        -0.07792
C         18.45871        16.46384        -0.17017
C         17.22228        17.16026        -0.08621
C         18.46780        19.34602        -0.29537
C         17.23365        18.63672         0.21424
C         18.45372        20.74603        -0.41172
C         17.21387        21.49737         0.02191
C         18.40912        23.63555        -0.45647
C         17.13635        22.87516        -0.67618
C         18.43672        24.91802         0.05656
C         17.18716        25.63244         0.33539
C         18.49628        27.60794         1.07244
C         17.20294        26.96596         0.77642
C         18.51895        29.13169         1.22613
C         17.23060        29.85469         1.13703
C         18.47836        31.99929         0.63912
C         17.23583        31.24915         1.06587
C         18.53364        33.40392         1.25641
C         17.27336        34.12640         0.82419
C         18.49868        36.35795         0.50982
C         17.30291        35.43159         0.36088
C         18.69096        37.14611        -0.77461
C         17.47474        37.87562        -1.30296
C         19.66694         4.30405         0.45714
C         20.87962         6.47587         0.60163
C         19.68596         5.75321         0.36361
C         20.88937         7.85901         0.53905
C         19.70621         8.59077         0.28026
C         20.91795        10.77978         0.22572
C         19.70272        10.04149         0.20585
C         20.92621        12.15360         0.10272
C         19.72077        12.89215         0.00227
C         20.91811        15.08056        -0.18338
C         19.71784        14.33300        -0.10523
C         20.89643        16.46183        -0.32288
C         19.68663        17.17853        -0.33030
C         20.78391        19.31830        -1.02174
C         19.65434        18.62063        -0.54596
C         20.75271        20.69830        -1.17400
C         19.60895        21.43677        -0.82911
C         20.90331        23.55986        -0.43079
C         19.64602        22.94959        -0.97970
C         20.91382        24.80912         0.09137
C         19.70794        25.58066         0.28026
C         20.95184        27.66826         0.81231
C         19.75273        26.92424         0.71176
C         20.96325        29.05948         0.92187
C         19.78852        29.83130         0.96577
C         20.93296        32.00149         0.57535
C         19.78849        31.25418         0.78203
C         20.89515        33.43631         0.49963
C         19.77359        34.14545         0.81282
C         21.06759        36.24888         0.52695
C         19.78523        35.64874         1.05781
C         21.12252        36.96379        -0.61205
C         19.91434        37.38071        -1.30089
O          6.21534        37.50334        -0.07891
O          7.85542        27.73209        -0.53046
O          6.60125        29.45861         2.79557
O         13.55793        33.11687         2.43795
O          9.77407        30.67396         2.75266
O         18.55699        28.24079         2.39217
O          1.60539        27.26760         2.69098
O          1.70487        19.07012        -1.75252
O          1.58322        29.97218         2.44553
O          2.87319        34.21745         1.59809
O         18.56578        33.29140         2.69314
H         18.96206        34.13103         3.03420
O          8.70027        23.26919         2.23351
H          7.89563        23.64855         2.64780
O         13.79654        12.20484        -2.35069
H         13.28515        11.44044        -2.71846
O         12.12034        21.67089        -2.16501
H         12.12596        20.77948        -2.57471
O         18.10488        37.35013         1.51576
H         17.12707        37.42387         1.51305
O          1.12562        12.16526         1.47921
H          1.26204        13.10798         1.70904
O          3.54065        14.93085        -2.30038
H          3.19700        14.04373        -2.56946
O         18.30527        32.22715        -0.79860
H         18.35492        31.35945        -1.25120
O          8.52533        15.41208        -2.25731
H          8.45852        14.58990        -2.78622
O          1.16725        16.39033         1.50249
H          1.97768        15.90733         1.77230
O          0.68859        10.40075        -1.66982
H          0.71175         9.44239        -1.88012
O          7.16607        10.06588         1.23006
H          7.96509         9.68353         1.65207
O         10.75333         8.15793         1.36089
H         11.47804         7.75878         1.88733
O          6.02817         7.66229        -2.27632
H          6.77134         7.09149        -2.56703
O         17.31276        21.70911         1.45112
H         17.37947        20.81491         1.86480
O          2.34819        12.45414        -2.03683
H          1.69109        11.73936        -2.23789
O         17.43456         5.57317        -1.82984
H         18.27398         5.09220        -1.99256
O         16.98083        22.61928        -2.10148
H         17.87403        22.67243        -2.52302
O         17.30302        18.76465         1.69333
H         16.56473        18.23575         2.06568
O          3.61474        12.32058         1.41134
H          4.39231        11.85052         1.78054
O          2.59779        30.77187        -0.97762
H          2.61779        31.55994        -1.56091
O         15.77210        12.20223         1.72320
H         16.59664        11.84769         2.12074
O         12.41338         9.80855        -2.41765
H         11.66194         9.20193        -2.65592
O          6.24848        10.51120        -2.26704
H          5.40512        10.78319        -2.68528
O         12.53753        37.86894        -3.17705
H         13.43136        38.17053        -3.43925
O         19.66386        23.18710        -2.45028
H         19.77264        24.15314        -2.58461
O          8.55587        15.99306         1.34762
H          8.57208        16.82214         1.87005
O         10.13563         8.28792        -2.24663
H          9.37262         8.64783        -2.74803
O         19.77942        35.77335         2.50476
H         19.27288        36.59850         2.70405
O         17.56556        38.07214        -2.72048
H         17.57249        37.19218        -3.14959
H          1.37066         2.39062         0.76757
H         -0.79082         3.61247         0.99471
H         -0.87818         6.06652         0.81659
H         -0.76699         7.98409         1.23209
H         -0.89825        10.40146         0.85807
H         -1.11617        12.23723        -0.48971
H         -1.07924        14.68724        -0.60400
H         -1.11429        16.58030        -0.29012
H         -1.16485        18.97004        -0.53785
H         -1.07674        20.84085         0.28892
H         -1.06401        23.21333         0.86536
H         -1.04702        25.09814         0.62115
H         -1.12695        27.49293         0.84894
H         -1.12426        29.42320         0.64568
H         -1.02900        31.73294         0.00301
H         -1.03613        33.65543        -0.22581
H         -0.85578        35.88419        -1.21530
H          0.47950        37.62314        -2.28920
H          3.79545         2.40979         0.44205
H          2.68471        38.62815        -2.80731
H          6.23675         2.41649         0.15552
H          4.97564        38.30802        -3.09459
H          8.68912         2.43316        -0.05605
H          7.76946        38.42514        -2.90270
H         11.13851         2.46223        -0.05300
H         10.03625        38.61475        -2.41372
H         13.59661         2.49073         0.10651
H         12.46596        38.89263        -1.35563
H         16.03022         2.52740         0.46675
H         15.01906        38.67473        -2.04815
H         18.49747         2.51489         0.55440
H         17.47403        38.90612        -0.84699
H         20.61548         3.78567         0.65968
H         21.80546         5.92768         0.82768
H         21.83635         8.38563         0.71638
H         21.87872        10.25481         0.30610
H         21.89331        12.67338         0.09566
H         21.89061        14.57152        -0.16467
H         21.85192        16.99619        -0.41299
H         21.70098        18.77422        -1.28463
H         21.64097        21.21472        -1.56324
H         21.84741        23.00543        -0.53063
H         21.87090        25.23555         0.42371
H         21.91698        27.16088         0.67900
H         21.93663        29.56664         0.86566
H         21.91930        31.51840         0.53124
H         21.83200        33.96025         0.25762
H         21.98535        36.03419         1.09378
H         22.08572        37.33614        -0.99046
H         20.00588        38.00071        -2.20500
