         200
 CSIRO Nanostructure Databank - Neutral Graphene Oxide Data Set
C        -11.03131         0.67270         0.35185
C         -9.77206         1.37137         0.54785
C         -8.55819         0.61384         0.34771
C         -7.22167         1.25602         0.64593
C         -6.10102         0.65673        -0.15506
C         -4.97812         1.40379        -0.46574
C         -3.78743         0.74322        -1.12100
C         -2.51810         1.49580        -0.86095
C         -1.28273         0.74800        -0.58233
C          0.02521         1.51666        -0.55027
C          1.27209         0.74391        -0.65267
C          2.48319         1.46059        -0.81659
C          3.72974         0.67818        -0.91539
C          5.04459         1.42049        -0.94179
C          6.25574         0.69004        -0.49780
C          7.45335         1.38566        -0.32000
C          8.64093         0.69960         0.05214
C          9.85121         1.43204         0.31371
C         11.03793         0.70734         0.62443
C         -9.73039         2.69710         0.92189
C         -8.44046         3.38111         1.29809
C         -7.25570         2.75512         0.61084
C         -6.16564         3.50560         0.16362
C         -4.96067         2.83893        -0.34555
C         -3.80821         3.55205        -0.71225
C         -2.53875         2.86973        -0.89306
C         -1.27193         3.58555        -1.38282
C          0.03252         2.94640        -0.91813
C          1.24331         3.59215        -1.01663
C          2.50800         2.87651        -0.89074
C          3.74912         3.61044        -0.90225
C          5.02327         2.90488        -0.83440
C          6.21947         3.56064        -0.65773
C          7.54581         2.83631        -0.72157
C          8.67219         3.56573        -0.01546
C          9.81100         2.84985         0.35056
C         -8.47928         4.86927         1.18827
C         -7.35075         5.59682         0.82416
C         -6.19782         4.92584         0.28797
C         -5.08386         5.73280        -0.21682
C         -3.86284         5.02777        -0.76719
C         -2.58488         5.81759        -0.86746
C         -1.31477         5.10655        -1.20526
C         -0.01210         5.84630        -1.08837
C          1.28486         5.07100        -1.15363
C          2.53138         5.76507        -0.79052
C          3.73692         5.03586        -0.85528
C          5.00923         5.79664        -0.91858
C          6.29119         5.02987        -0.74208
C          7.47372         5.71568        -0.16547
C          8.60363         4.97145         0.15729
C         -7.30128         7.02722         0.97522
C         -6.12422         7.75381         0.78343
C         -4.95201         7.12702         0.24931
C         -3.71495         7.80389         0.20286
C         -2.51131         7.17192        -0.25201
C         -1.26174         7.81738        -0.12053
C         -0.01501         7.19087        -0.47975
C          1.21619         7.82384        -0.23299
C          2.48696         7.16023        -0.46724
C          3.68817         7.85990        -0.21615
C          5.00406         7.31585        -0.71849
C          6.19678         7.82078         0.07664
C          7.36482         7.08991         0.19610
C         -6.05387         9.14928         1.15043
C         -4.87125         9.82084         1.10652
C         -3.65494         9.16689         0.68902
C         -2.43601         9.81881         0.76660
C         -1.22105         9.16303         0.41334
C          0.00288         9.80979         0.59112
C          1.22948         9.16251         0.30822
C          2.45030         9.80499         0.58314
C          3.67767         9.17328         0.31756
C          4.92284         9.82250         0.65818
C          6.11706         9.15770         0.58847
C        -11.07197        -0.66723         0.11441
C         -9.86136        -1.44725        -0.02355
C         -8.59979        -0.73298         0.02030
C         -7.37914        -1.45192        -0.29025
C         -6.18440        -0.73908        -0.45959
C         -4.97745        -1.42733        -0.93678
C         -3.69177        -0.72783        -0.84508
C         -2.49289        -1.42778        -0.78836
C         -1.24144        -0.71477        -0.67994
C         -0.01901        -1.38858        -0.50812
C          1.23342        -0.66753        -0.50957
C          2.47068        -1.40279        -0.36682
C          3.71223        -0.73802        -0.49544
C          4.93807        -1.41991        -0.28318
C          6.19534        -0.71494        -0.26653
C          7.39453        -1.41995         0.04703
C          8.62103        -0.71288         0.18986
C          9.83799        -1.42194         0.48517
C         11.04106        -0.66817         0.67979
C         -9.87475        -2.82786        -0.13565
C         -8.65879        -3.59082        -0.23650
C         -7.41594        -2.88776        -0.40175
C         -6.22267        -3.62377        -0.54699
C         -4.97516        -2.93974        -0.91379
C         -3.68885        -3.61336        -0.69511
C         -2.48853        -2.87994        -0.67407
C         -1.24794        -3.55838        -0.44118
C         -0.02158        -2.82968        -0.36547
C          1.18672        -3.52087        -0.07343
C          2.44682        -2.80060        -0.06283
C          3.66975        -3.47524         0.15095
C          4.91446        -2.81285         0.02850
C          6.14600        -3.53513         0.23741
C          7.37453        -2.83987         0.23948
C          8.60784        -3.55078         0.46550
C          9.82052        -2.81873         0.57905
C         -8.65304        -4.99342        -0.19083
C         -7.44177        -5.73262        -0.22628
C         -6.20482        -5.02939        -0.39200
C         -4.95594        -5.73174        -0.37915
C         -3.71189        -5.01781        -0.45851
C         -2.48342        -5.70849        -0.29323
C         -1.25691        -4.97757        -0.27804
C         -0.03600        -5.66905        -0.02367
C          1.15425        -4.92682         0.12404
C          2.35961        -5.63783         0.57261
C          3.66996        -4.87958         0.59217
C          4.91646        -5.65668         0.53692
C          6.13893        -4.95530         0.43426
C          7.37545        -5.67468         0.56431
C          8.58944        -4.95505         0.58780
C         -7.40821        -7.15057        -0.11303
C         -6.19913        -7.84907        -0.10411
C         -4.95103        -7.13861        -0.20472
C         -3.71392        -7.84135        -0.10510
C         -2.48539        -7.12972        -0.11963
C         -1.25044        -7.82672         0.05165
C         -0.03373        -7.10611         0.12508
C          1.19176        -7.81370         0.32358
C          2.40743        -7.10576         0.48874
C          3.63573        -7.78361         0.62616
C          4.88369        -7.06302         0.65638
C          6.12443        -7.78461         0.72405
C          7.33481        -7.08936         0.70556
C         -6.15806        -9.28580         0.02834
C         -4.97515        -9.96269         0.08972
C         -3.70815        -9.27204         0.04759
C         -2.49782        -9.95399         0.15987
C         -1.25219        -9.26150         0.17500
C         -0.03023        -9.94680         0.31850
C          1.19511        -9.24972         0.39272
C          2.43685        -9.92338         0.56131
C          3.63930        -9.22199         0.65413
C          4.90403        -9.90770         0.78181
C          6.08345        -9.22545         0.81714
O         -6.91732         0.88529         2.04575
H         -7.49755         1.46087         2.60999
O          0.71466         5.69507        -2.35812
O          5.84336         5.47559        -2.08470
O         -2.09821         5.76167        -2.26380
O         -3.99182         0.83768        -2.58002
H         -4.60524         0.11713        -2.84360
O          4.46337         0.90591        -2.18119
O          7.90778         2.83979        -2.14505
H          8.74078         2.33086        -2.23690
O         -4.87668         5.55009        -1.68281
O         -1.27460         3.34340        -2.81477
H         -1.73250         4.10917        -3.23495
O          5.15434         7.92510        -2.03718
H          5.66069         7.27610        -2.58263
O         -8.27288         3.09738         2.78041
H         -7.59097         3.72326         3.10902
O         -5.10992        -2.20122        -2.19022
O          2.90692        -5.10168         1.83428
O         -0.69938         1.23856         0.70746
H         11.97131        -1.20874         0.90736
H         11.96482         1.26805         0.81465
H         10.69150         3.39485         0.72531
H          9.46178         5.48348         0.62102
H          8.23377         7.55934         0.68505
H          7.03588         9.63138         0.96655
H          4.88157        10.84427         1.06275
H          2.44107        10.81938         1.00857
H          0.01939        10.83389         0.99245
H         -2.39071        10.85185         1.14231
H         -4.81523        10.87464         1.41640
H         -6.96999         9.64846         1.49789
H         -8.19080         7.54230         1.36719
H         -9.36048         5.39507         1.58476
H        -10.66927         3.25758         1.04865
H        -11.96474         1.24523         0.45742
H        -12.03939        -1.18371         0.02509
H        -10.83421        -3.36660        -0.10576
H         -9.60558        -5.53404        -0.08404
H         -8.35440        -7.70336        -0.01236
H         -7.11120        -9.83240         0.08273
H         -4.96932       -11.05792         0.19292
H         -2.49897       -11.04937         0.26564
H         -0.03192       -11.04452         0.39289
H          2.44498       -11.02264         0.61066
H          4.89818       -11.00647         0.83541
H          7.03584        -9.76982         0.89964
H          8.28091        -7.64424         0.79385
H          9.53661        -5.49676         0.72831
H         10.75670        -3.36179         0.77706
