         598
 CSIRO Nanostructure Databank - Neutral Graphene Oxide Data Set
C         23.04137        69.47122        -0.99455
C         23.09308        70.63891        -1.74017
C         22.13055        70.96015        -2.74392
C         23.43821        72.89051        -3.46957
C         22.29309        72.07222        -3.55582
C         25.38595        65.61219         0.78594
C         25.31361        67.03301         0.70329
C         24.16779        67.65817         0.23267
C         25.28509        69.83829        -0.03244
C         24.14688        69.03246        -0.18892
C         25.30446        71.21411        -0.53971
C         24.17357        71.61323        -1.48486
C         25.65955        73.33723        -2.50818
C         24.42033        72.66767        -2.49179
C         27.81940        61.38520         1.15126
C         27.79308        62.77056         1.02088
C         26.58832        63.50647         1.04124
C         27.82730        65.65786         1.44095
C         26.57096        64.91707         1.02304
C         27.82872        67.13866         1.09086
C         26.51528        67.83883         1.01793
C         27.78537        69.98194         0.36817
C         26.49440        69.30612         0.61517
C         27.85604        71.20417        -0.26066
C         26.60124        72.02834        -0.50908
C         28.00164        73.55781        -1.89254
C         26.75250        72.97125        -1.69559
C         30.35660        57.04289         1.46203
C         30.26503        58.48554         1.52851
C         29.04386        59.25286         1.24663
C         30.29333        61.38179         0.97298
C         29.04389        60.63900         1.13372
C         30.32074        62.74970         0.80999
C         29.03895        63.51246         0.60130
C         30.29795        65.61379         1.00807
C         29.10231        64.95279         1.04111
C         30.30657        67.11605         0.80381
C         28.99094        67.83202         1.01987
C         30.29906        69.99604         0.58038
C         28.99922        69.35811         1.01208
C         30.33586        71.25525        -0.02333
C         29.12429        71.85677        -0.48615
C         30.40835        73.73467        -1.44185
C         29.17806        73.07937        -1.24041
C         32.84821        52.82215         1.53319
C         32.83800        54.24075         1.67538
C         31.62659        54.95904         1.60362
C         32.85013        57.10237         1.43400
C         31.59037        56.37871         1.54514
C         32.86401        58.47356         1.19229
C         31.61729        59.23127         1.34501
C         32.82274        61.27399         0.45280
C         31.52878        60.58997         0.76524
C         32.84803        62.73949         0.71295
C         31.56081        63.50078         0.73886
C         32.88200        65.58019         1.16171
C         31.55377        64.88244         0.84188
C         32.84620        67.12928         1.01931
C         31.55459        67.86740         1.24689
C         32.84630        70.11908         0.90334
C         31.51807        69.36898         1.06182
C         32.78533        71.47762         0.31754
C         31.60515        71.97831        -0.17355
C         32.83280        73.91246        -1.12903
C         31.61869        73.25337        -0.89297
C         35.29318        48.68096         0.42110
C         35.27355        50.04548         0.76279
C         34.05292        50.74171         0.96860
C         35.32590        52.72711         1.70541
C         34.03480        52.08278         1.38812
C         35.33037        54.26483         1.91435
C         34.07032        54.97638         1.73717
C         35.33848        57.06208         1.45357
C         34.10009        56.36967         1.51888
C         35.39129        58.43165         0.83081
C         34.08784        59.19502         0.90262
C         35.39447        61.19696         0.19442
C         34.09804        60.53615         0.62318
C         35.39864        62.71490         0.17493
C         34.15680        63.46696         0.49034
C         34.87215        65.68869        -0.33117
C         34.01387        64.93997         0.38782
C         35.03261        67.14533        -0.35820
C         33.79732        67.92482         0.09471
C         35.16873        70.04341         0.01880
C         34.05733        69.31559         0.63534
C         35.30020        71.49263         0.39116
C         34.02062        72.34016         0.45061
C         35.26217        74.11130        -0.81840
C         34.06995        73.47972        -0.55720
C         37.69769        44.40881         0.02964
C         37.71274        45.82678         0.15753
C         36.51469        46.57083         0.08446
C         37.76315        48.67431         0.38401
C         36.50876        47.96644         0.28892
C         37.74245        50.06500         0.57690
C         36.53254        50.75552         0.85584
C         37.80162        52.84889         1.31099
C         36.57647        52.11115         1.25956
C         37.80667        54.26481         1.57572
C         36.59453        54.97454         1.72156
C         37.81331        57.11907         1.72817
C         36.57530        56.38982         1.62609
C         37.68818        58.59757         2.06854
C         36.58094        59.27220         1.25768
C         37.80216        61.39617         1.01275
C         36.60001        60.59573         0.90706
C         37.86487        62.69505         0.54689
C         36.65100        63.34406         0.08923
C         37.83231        65.57128        -0.06978
C         36.77797        64.68266        -0.37841
C         37.73846        67.03725        -0.27779
C         36.41777        67.75632        -0.50586
C         37.70935        69.96214        -0.42448
C         36.41491        69.27335        -0.40643
C         37.65031        71.43121        -0.61700
C         36.56818        72.20048         0.07747
C         37.80292        74.34130        -0.54643
C         36.51450        73.73469        -0.04428
C         40.06922        40.13734        -0.57664
C         40.07956        41.49896        -0.19658
C         38.86311        42.23825        -0.06711
C         40.08311        44.25911         0.69849
C         38.84901        43.61520         0.19586
C         40.12091        45.75158         0.83116
C         38.94180        46.52171         0.40954
C         40.26899        48.60133         0.54455
C         39.00393        47.93160         0.42760
C         40.30784        50.06123         0.38028
C         38.98322        50.83816         0.46576
C         40.25924        52.91449         1.01439
C         39.02293        52.22546         0.94037
C         40.26036        54.31084         1.32226
C         39.03657        54.99653         1.53498
C         40.30546        57.11524         2.00834
C         39.01361        56.42403         1.75192
C         40.32269        58.62538         2.12122
C         39.01487        59.36979         2.02994
C         40.30328        61.37001         0.96098
C         39.03651        60.77839         1.54600
C         40.27441        62.89196         1.02036
C         39.07509        63.52043         0.66659
C         40.19679        65.77571         0.67410
C         38.99602        64.94562         0.46334
C         40.21496        67.11344        -0.00736
C         38.89553        67.80364        -0.21709
C         40.15184        69.99408        -0.59853
C         38.89501        69.25437        -0.44419
C         40.15091        71.37122        -0.86648
C         38.91230        72.15770        -0.94669
C         40.22201        74.30585        -0.93445
C         38.96321        73.64059        -0.78902
C         42.43530        35.96756        -1.73284
C         42.45113        37.37185        -1.51245
C         41.26642        38.06159        -1.20147
C         42.50636        40.15930        -0.89215
C         41.26629        39.44627        -0.88219
C         42.53329        41.54044        -0.50385
C         41.33752        42.16849        -0.08415
C         42.67220        44.26774         0.43056
C         41.41119        43.51802         0.47766
C         42.76474        45.64081         1.10724
C         41.45425        46.45252         1.01472
C         42.73582        48.57518         0.66013
C         41.49705        47.90625         0.71281
C         42.81030        50.05180         0.94100
C         41.51743        50.80365         0.74348
C         42.82753        52.84247         1.22453
C         41.50135        52.16559         0.90273
C         42.74137        54.33779         0.94545
C         41.50572        55.05230         1.35291
C         42.84346        57.09695         1.78174
C         41.54829        56.39016         1.65301
C         42.85639        58.63045         1.92373
C         41.57538        59.38279         1.81019
C         42.82783        61.41339         0.98361
C         41.56482        60.69619         1.44287
C         42.83208        62.90327         1.34161
C         41.50887        63.64400         1.28507
C         42.80226        65.80023         0.73055
C         41.51198        65.13070         1.05598
C         42.80388        67.21247         0.48303
C         41.50304        67.89048         0.07250
C         42.41943        70.21684         0.11910
C         41.37359        69.36041        -0.14793
C         42.68365        71.43212        -0.61013
C         41.39429        72.12287        -1.07518
C         42.68882        74.24133        -0.95233
C         41.43598        73.60310        -1.03254
C         44.85767        33.12808        -1.95839
C         43.64431        33.84422        -2.06461
C         44.86401        36.00290        -2.18969
C         43.61236        35.25257        -2.00720
C         44.92413        37.42951        -1.85680
C         43.70637        38.09368        -1.55101
C         44.92600        40.20858        -1.38980
C         43.71223        39.48300        -1.24616
C         44.92496        41.66780        -1.16081
C         43.74571        42.28654        -0.53054
C         45.15719        44.20991         0.36715
C         43.81061        43.63357        -0.05161
C         45.16321        45.72409         0.41286
C         43.97448        46.42643         0.62804
C         45.20281        48.54627         0.31601
C         43.98024        47.85163         0.55874
C         45.14669        49.95685        -0.25917
C         43.93655        50.76656         0.19251
C         45.29277        52.95050         0.44438
C         43.98369        52.24231         0.40043
C         45.30762        54.30407         0.77813
C         44.04408        55.07076         0.86643
C         45.30284        57.14450         1.40116
C         44.08823        56.47337         1.31325
C         45.32558        58.60180         1.53961
C         44.12150        59.29511         1.58879
C         45.37348        61.52105         1.39597
C         44.08335        60.76148         1.54967
C         45.31766        62.94602         0.99151
C         44.08501        63.66118         1.06042
C         45.30425        65.77675         0.66542
C         44.01664        65.06085         0.81532
C         45.29686        67.15045         0.15467
C         44.05309        67.85386         0.28019
C         45.24006        69.98360        -0.27747
C         44.24773        69.27513         0.34410
C         45.18750        71.43301        -0.42076
C         43.96768        72.15204        -0.48552
C         45.16613        74.24335        -0.84589
C         43.93930        73.55473        -0.77699
C         46.07849        33.75883        -1.84204
C         47.35839        35.95315        -1.63261
C         46.20518        35.19023        -2.09116
C         47.40565        37.33480        -1.64747
C         46.17197        38.11417        -1.84860
C         47.29897        40.36486        -1.91698
C         46.11492        39.54998        -1.74724
C         47.48665        41.59856        -1.35928
C         46.26984        42.38617        -1.08517
C         47.58240        44.24502        -0.17982
C         46.36473        43.66993        -0.37744
C         47.63984        45.61215         0.39822
C         46.39235        46.41140         0.35025
C         47.71205        48.51036         0.16790
C         46.42819        47.83112         0.29665
C         47.75644        49.97962        -0.03317
C         46.46722        50.76468        -0.14994
C         47.75275        52.82394         0.43203
C         46.51343        52.19588         0.26525
C         47.78446        54.30115         0.60959
C         46.53232        55.03445         0.93217
C         47.80042        57.08280         1.60165
C         46.53512        56.39949         1.21289
C         47.82847        58.59324         1.65804
C         46.57484        59.33929         1.43962
C         47.82194        61.42465         0.87235
C         46.61961        60.73353         1.26594
C         47.74282        62.79991         0.50987
C         46.54400        63.54701         0.63334
C         47.75491        65.69944        -0.09969
C         46.60464        65.01773         0.53124
C         47.69962        67.08681        -0.41379
C         46.44742        67.79369        -0.29697
C         47.65422        69.94182        -0.89870
C         46.34931        69.18314        -0.91033
C         47.63211        71.36919        -0.88104
C         46.40643        72.11255        -0.68917
C         47.62671        74.22487        -0.97246
C         46.39737        73.53973        -0.82848
C         48.65162        37.92990        -1.14668
C         50.14306        40.00473        -1.01919
C         49.10121        39.16574        -1.53163
C         50.09815        41.40493        -1.07477
C         48.85316        42.27768        -1.36568
C         50.15991        44.18930        -0.22203
C         48.84273        43.48512        -0.41742
C         50.19033        45.64981        -0.02915
C         48.96325        46.35681         0.38858
C         50.18357        48.51830         0.12194
C         48.91744        47.82718         0.23090
C         50.21954        49.94141         0.26285
C         49.00418        50.69097         0.30484
C         50.27558        52.76563         0.59764
C         49.00344        52.09154         0.42689
C         50.33825        54.15991         0.84646
C         49.09722        54.97794         0.84755
C         50.39796        57.09310         1.49221
C         49.09552        56.33303         1.51465
C         50.37574        58.53907         1.18501
C         49.16327        59.32978         1.37338
C         50.26600        61.38238         0.50471
C         49.09872        60.73254         0.86921
C         50.21546        62.72681        -0.11286
C         48.91246        63.48148        -0.09857
C         50.09427        65.63252        -0.74931
C         48.93264        64.96238        -0.30392
C         50.06987        67.01805        -1.02676
C         48.87200        67.75638        -0.89193
C         50.04379        69.89978        -1.45138
C         48.86889        69.21299        -1.09354
C         50.00836        71.35963        -1.59858
C         48.82002        72.08772        -1.14450
C         50.07866        74.21380        -1.16028
C         48.84152        73.52111        -1.11590
C         51.31417        42.11522        -0.91152
C         52.55938        44.24736        -0.83710
C         51.37864        43.51388        -0.72699
C         52.58977        45.65093        -0.59635
C         51.35721        46.35264        -0.25064
C         52.63001        48.47950        -0.13629
C         51.38621        47.79491        -0.07458
C         52.68072        49.88367         0.07756
C         51.46945        50.61512         0.28762
C         52.75735        52.70302         0.52059
C         51.49797        52.03100         0.48457
C         52.78256        54.09199         0.75673
C         51.57633        54.80978         0.94043
C         52.84930        56.97323         0.73089
C         51.63652        56.27372         1.20201
C         52.87323        58.40870         0.88259
C         51.61445        59.19553         0.75974
C         52.80184        61.54991         0.29011
C         51.57744        60.68873         0.44505
C         52.75924        62.77598        -0.40247
C         51.47888        63.51613        -0.28650
C         52.59742        65.54233        -1.39368
C         51.41038        64.94072        -0.69395
C         52.62096        67.01389        -1.45739
C         51.29491        67.67934        -1.55210
C         52.60488        69.88304        -1.91344
C         51.27605        69.16398        -1.81076
C         52.61724        71.38332        -1.91462
C         51.31324        72.14895        -1.81732
C         52.50353        74.18235        -0.97283
C         51.31770        73.55067        -1.32114
C         53.78889        46.35826        -0.66811
C         55.07065        48.44550        -0.46893
C         53.85027        47.76034        -0.41770
C         55.14387        49.84678        -0.25108
C         53.93439        50.56476         0.03174
C         55.22489        52.62713         0.12033
C         53.98731        51.97112         0.25037
C         55.31703        54.08268         0.32486
C         54.06596        54.82054         0.69533
C         55.25368        56.99545         0.18804
C         54.00148        56.27816         0.47958
C         55.34856        58.40310         0.65205
C         54.11105        58.97108         1.07956
C         55.24842        61.50566        -0.01648
C         54.07886        61.10835         0.64594
C         55.18395        62.70759        -0.75522
C         53.95322        63.40302        -0.82811
C         55.15594        65.52186        -1.56401
C         53.90819        64.76276        -1.43001
C         55.08918        66.96088        -1.76883
C         53.81756        67.70964        -1.58435
C         55.06976        69.85687        -1.34128
C         53.86700        69.14727        -1.59895
C         55.07853        71.29434        -1.17748
C         53.90459        72.08915        -1.58569
C         54.95921        74.08546        -0.40187
C         53.81905        73.56596        -1.12453
C         56.37906        50.53836        -0.32888
C         57.69194        52.66127        -0.24436
C         56.43871        51.93301        -0.17617
C         57.75369        54.05032        -0.29637
C         56.42202        54.75389        -0.48632
C         57.77365        56.91917         0.06559
C         56.47144        56.25722        -0.24326
C         57.74639        58.42976         0.17327
C         56.45979        59.16306         0.31209
C         57.70488        61.21176        -0.64204
C         56.40975        60.57922        -0.15456
C         57.71724        62.67151        -0.85847
C         56.43846        63.30142        -1.28406
C         57.74342        65.51565        -1.52212
C         56.43079        64.78576        -1.64418
C         57.72184        67.04144        -1.46062
C         56.42283        67.77863        -1.63908
C         57.47043        69.81849        -0.66144
C         56.32147        69.16355        -1.16718
C         57.42064        71.22761        -0.39204
C         56.21524        71.95707        -0.68703
C         57.32052        74.02397         0.13483
C         56.15988        73.37544        -0.34709
C         58.96979        54.79268        -0.35255
C         60.21818        56.96006        -0.27505
C         59.03145        56.20138        -0.26435
C         60.23611        58.38830        -0.20150
C         58.99378        59.13626        -0.16361
C         60.19292        61.25733        -0.41803
C         58.97805        60.49779        -0.41134
C         60.13660        62.64902        -0.48176
C         58.90775        63.37341        -0.75568
C         60.05226        65.57060        -0.66725
C         58.92120        64.82218        -0.94632
C         60.03360        67.01387        -0.56620
C         58.83529        67.73058        -0.78283
C         59.84276        69.77460         0.12382
C         58.71501        69.10492        -0.44125
C         59.78342        71.20115         0.37540
C         58.57136        71.90739         0.08617
C         59.71151        74.03629         0.64008
C         58.53614        73.33595         0.29579
C         61.43743        59.12340        -0.24980
C         62.65829        61.27168        -0.20875
C         61.45638        60.54573        -0.27075
C         62.67907        62.69933        -0.19257
C         61.36439        63.39993        -0.17883
C         62.56704        65.65570        -0.36442
C         61.29539        64.88614        -0.23620
C         62.47122        67.06446         0.03221
C         61.18471        67.70648        -0.05611
C         62.20763        69.70874         0.96318
C         61.05555        69.06294         0.31547
C         62.13792        71.21702         1.22172
C         60.92152        71.91735         0.79614
C         62.13051        74.04957         1.11956
C         60.92767        73.35299         0.85037
C         63.84724        63.42894        -0.08669
C         65.00288        65.67897         0.32111
C         63.87881        64.90280        -0.19693
C         64.90179        67.04161         0.55503
C         63.63123        67.74030         0.43934
C         64.67569        69.81328         1.28744
C         63.54119        69.09842         0.87710
C         64.61668        71.25139         1.48058
C         63.40737        71.94628         1.33161
C         64.57739        74.09883         1.43580
C         63.37248        73.38228         1.29439
C         66.03118        67.79070         1.04558
C         67.14079        69.83022         1.95447
C         65.93886        69.11985         1.37687
C         67.08498        71.33218         1.80670
C         65.84083        71.99446         1.64098
C         67.02976        74.15178         1.72202
C         65.80901        73.42632         1.60306
C         68.25846        72.07393         1.91129
C         68.22964        73.48319         1.86307
O         55.68782        56.95874        -1.26204
O         48.39040        45.81856         1.63141
O         56.81305        60.53200        -1.58538
O         40.58626        46.18828         2.15967
O         43.10937        52.66203         2.59550
O         48.50665        55.00820        -0.49828
O         51.07263        68.21397        -2.91225
O         49.37338        62.76703        -1.31153
O         54.17486        73.15960        -2.51067
O         50.45358        71.87989        -2.93225
O         31.99584        60.74245        -0.63103
O         39.01154        60.50198         2.97808
O         32.45175        67.60907         2.34923
O         40.69404        65.84210         2.05377
O         54.18470        60.21448         1.70383
O         36.29094        71.72696         1.43796
O         42.26458        71.43680        -2.01765
O         42.14982        63.25107         2.56601
O         61.90409        70.24341         2.29768
O         35.60451        67.44803        -1.68015
O         35.75023        65.05309        -1.23224
O         58.11305        66.33139        -2.67397
O         39.65557        50.58754        -0.81887
O         51.68712        64.58461         0.72519
O         49.55354        43.34859         0.84061
O         63.37947        65.37387        -1.53537
O         40.72369        43.59510         1.80022
O         26.30489        68.88027         2.03481
O         48.39459        56.41789         2.78271
O         43.52029        51.68230        -0.87263
O         45.41544        42.48423        -2.29369
O         41.07007        67.18105        -1.18534
O         31.02578        59.10400         2.64849
O         48.61211        59.14391         2.74216
O         51.52482        59.70259        -0.66867
O         56.41894        63.73031        -2.67814
O         35.46705        69.83450        -1.40485
O         42.99159        57.76266         3.08059
O         37.93566        71.79935        -2.00369
O         45.63197        35.63395        -3.36031
O         44.69379        61.36578         2.71455
O         32.17003        70.05626         2.19342
O         52.72794        70.64501        -3.16703
O         51.30852        56.67284         2.58175
O         40.37217        57.79610         3.31561
O         42.84335        61.27159        -0.42338
O         47.27011        50.48209        -1.33715
O         55.10717        54.49103         1.70984
O         61.18189        64.21667         1.06782
O         35.36732        53.31606         3.03279
O         55.82772        67.50181        -2.92029
O         24.18444        72.05195        -0.07821
O         43.20058        54.80388        -0.35072
O         53.00204        64.85912        -2.61352
O         33.72529        62.98647         1.84295
O         43.31323        69.94213         1.15508
O         46.21520        65.63458         1.81399
O         45.33703        43.64145         1.64530
O         57.88165        57.54630         1.37350
O         48.37717        39.77584        -2.58160
O         27.81780        65.62013         2.90624
H         27.02825        66.11473         3.21320
O         26.52121        72.89472         0.65736
H         25.56992        73.12976         0.76416
O         68.35788        69.30490         1.41611
H         68.37476        69.49123         0.45524
O         33.13097        65.28438         2.55073
H         32.65931        65.96430         3.08746
O         49.03768        42.84284        -2.69088
H         48.92669        42.11568        -3.34057
O         40.25165        61.07527        -0.46616
H         41.21479        61.14109        -0.78182
O         33.94273        72.95673         1.76645
H         33.82090        72.24246         2.42895
O         43.00127        45.37768         2.50368
H         42.15316        45.05746         2.88866
O         28.90485        69.72848         2.43430
H         27.97340        69.53796         2.70979
O         35.62103        58.14283        -0.59239
H         35.53699        59.00402        -1.08004
O         44.92946        49.68433        -1.66695
H         44.63243        50.52998        -2.07536
O         36.34963        74.30915         1.27604
H         35.57698        73.85742         1.70351
O         43.15470        50.06592         2.34993
H         43.14022        51.03536         2.67109
O         35.54471        60.83214        -1.23512
H         36.39239        61.21258        -1.55360
O         56.07204        54.52879        -1.87450
H         55.70262        55.37747        -2.22037
O         28.92586        63.62205        -0.87723
H         28.96693        62.71028        -1.23939
O         33.02659        68.11413        -1.13108
H         33.66876        68.43155        -1.80964
O         30.45476        67.22523        -0.66553
H         29.83503        66.58897        -1.08379
O         37.20139        58.63444         3.43542
H         37.61361        59.41956         3.86617
O         46.01096        68.99548        -2.32722
H         46.76485        68.54419        -2.76319
H         23.58651        73.69474        -4.20440
H         25.82672        74.10029        -3.28498
H         28.10574        74.37022        -2.62855
H         30.42740        74.65431        -2.04593
H         32.83704        74.80732        -1.77002
H         35.28060        74.98266        -1.49120
H         37.86073        75.43943        -0.48348
H         40.24601        75.40283        -0.84797
H         42.71402        75.34107        -0.99580
H         45.17395        75.33063        -1.01121
H         47.63369        75.32400        -1.00788
H         50.08359        75.29449        -0.95896
H         52.45753        75.17873        -0.50927
H         54.88611        75.07195         0.07813
H         57.27861        75.10195         0.34725
H         59.67837        75.13121         0.73536
H         62.11104        75.14901         1.14492
H         64.56071        75.19825         1.40560
H         67.00238        75.25044         1.69412
H         22.20187        68.77557        -1.14360
H         21.26586        70.29564        -2.88331
H         21.54329        72.28964        -4.32923
H         24.47896        65.03815         0.54015
H         23.28268        67.04142         0.01560
H         26.88191        60.84726         1.35857
H         25.62993        62.96322         1.03298
H         29.43990        56.45651         1.30024
H         28.08351        58.71565         1.24450
H         31.88593        52.31035         1.38180
H         30.67638        54.40470         1.58477
H         34.34207        48.13689         0.32488
H         33.10187        50.21710         0.79488
H         36.74953        43.91611        -0.22990
H         35.56013        46.03848        -0.03778
H         39.10945        39.60410        -0.63875
H         37.92067        41.74122        -0.33928
H         41.48336        35.42398        -1.63790
H         40.31522        37.50932        -1.17987
H         44.80748        32.03524        -1.84801
H         42.69480        33.29097        -2.02912
H         46.97092        33.19149        -1.54041
H         48.22732        35.39365        -1.25428
H         49.23890        37.33616        -0.43021
H         51.03934        39.53559        -0.58232
H         52.25881        41.55360        -0.98381
H         53.49007        43.73967        -1.13210
H         54.71820        45.82141        -0.91088
H         55.99241        47.88914        -0.69494
H         57.29779        49.97007        -0.53652
H         58.62554        52.07688        -0.24317
H         59.91568        54.23196        -0.42246
H         61.17961        56.43892        -0.40162
H         62.39639        58.58385        -0.24583
H         63.61323        60.72810        -0.15475
H         64.80604        62.90093         0.03045
H         65.93359        65.15316         0.58311
H         66.99891        67.27821         1.15144
H         67.16567        69.60220         3.05897
H         69.21500        71.54697         2.03551
H         69.16902        74.04683         1.94856
