         630
 CSIRO Nanostructure Databank - Neutral Graphene Oxide Data Set
C         23.06486        27.42424         2.02125
C         23.06735        28.80769         2.04737
C         23.04554        31.73906         1.79061
C         23.05501        33.11671         1.73637
C         23.04788        36.02425         1.55525
C         23.03640        37.39074         1.36590
C         23.03376        40.22289         0.62491
C         23.03435        41.56421         0.30041
C         23.06220        44.42408        -0.35532
C         23.08087        45.75392        -0.72918
C         25.46223        24.59672         1.49942
C         24.28511        25.27904         1.73825
C         25.48967        27.41368         1.66442
C         24.26637        26.69857         1.81225
C         25.49414        28.84033         1.73263
C         24.26254        29.55144         1.89252
C         25.47486        31.72617         1.85389
C         24.25691        31.00392         1.84632
C         25.50112        33.14417         1.76644
C         24.26677        33.85336         1.70821
C         25.49027        36.00242         1.46656
C         24.26150        35.29291         1.58428
C         25.47791        37.42418         1.30825
C         24.24092        38.12054         1.21937
C         25.44697        40.27996         1.00102
C         24.23084        39.54275         0.96024
C         25.41573        41.68076         0.76215
C         24.22603        42.33193         0.36323
C         25.47626        44.47475         0.04663
C         24.24563        43.74771         0.02961
C         25.50335        45.85018        -0.33919
C         24.29383        46.48844        -0.73713
C         25.50635        48.55356        -1.14546
C         24.32144        47.85431        -1.13260
C         27.98279        23.13582         1.01453
C         27.92705        24.55324         1.06326
C         26.69706        25.27423         1.32640
C         27.90043        27.44837         1.21122
C         26.70605        26.70529         1.42467
C         27.94256        28.85420         1.41115
C         26.73620        29.53590         1.69332
C         28.04386        31.74328         1.86315
C         26.73309        30.97565         1.98913
C         27.99320        33.19091         1.60759
C         26.75282        33.87232         1.64686
C         27.96087        36.00528         1.30778
C         26.73581        35.29143         1.47892
C         27.94935        37.43717         1.19923
C         26.71286        38.14807         1.21980
C         27.93599        40.27066         1.11706
C         26.70374        39.57431         1.15505
C         27.95527        41.73745         1.20215
C         26.62546        42.48525         0.98775
C         27.91506        44.56060         0.47322
C         26.68658        43.86025         0.48350
C         27.94748        45.94433         0.07862
C         26.73208        46.58534        -0.32193
C         27.96911        48.68917        -0.76583
C         26.73155        47.94824        -0.74978
C         28.03765        50.01679        -1.26165
C         30.36803        23.17358         0.47272
C         29.15467        22.47489         0.70052
C         30.34993        24.59824         0.54812
C         29.12528        25.26720         0.79600
C         30.41869        27.49496         0.69196
C         29.07508        26.72984         0.71988
C         30.42222        28.90108         1.10262
C         29.21122        29.58458         1.33304
C         30.45082        31.72199         1.29465
C         29.24877        30.99820         1.48250
C         30.45087        33.15942         1.26621
C         29.20932        33.87709         1.35305
C         30.42478        36.00957         1.03535
C         29.19737        35.30189         1.23418
C         30.41384        37.42949         0.94484
C         29.17465        38.14566         1.04442
C         30.39930        40.29811         0.88575
C         29.16349        39.57300         1.00818
C         30.42755        41.72655         0.86886
C         29.19711        42.47884         0.94418
C         30.39723        44.64132         0.78920
C         29.14643        43.86436         0.76350
C         30.42791        46.03140         0.32515
C         29.17680        46.69041         0.05644
C         30.39454        48.85648        -0.22735
C         29.15806        48.06125        -0.30334
C         30.43447        50.19046        -0.84548
C         29.24099        50.72277        -1.33547
C         32.80440        20.37746        -0.29639
C         31.67261        21.05142         0.05881
C         32.78780        23.23852         0.02150
C         31.59972        22.49020         0.14779
C         32.84306        24.62458         0.32435
C         31.60236        25.33799         0.53013
C         32.91763        27.37737         1.17849
C         31.63833        26.70774         0.75538
C         32.90390        28.87723         1.01984
C         31.67691        29.58543         1.12953
C         32.91804        31.71150         1.14552
C         31.68012        31.00941         1.17224
C         32.91085        33.14901         1.08321
C         31.67874        33.85690         1.08447
C         32.85500        36.00005         0.65233
C         31.66580        35.29964         0.93165
C         32.86889        37.42643         0.60690
C         31.63652        38.14143         0.77490
C         32.84517        40.27590         0.62568
C         31.61810        39.57227         0.75477
C         32.88030        41.69534         0.58394
C         31.66520        42.40030         0.71206
C         32.92468        44.53553         0.25645
C         31.72135        43.86247         0.76774
C         32.90157        45.92766         0.06559
C         31.67565        46.65823         0.13878
C         32.95135        48.73422        -0.65235
C         31.71217        48.12835        -0.01267
C         32.92652        50.23612        -0.75541
C         31.69483        50.90569        -0.90829
C         32.88949        52.96753        -1.41522
C         31.70778        52.30293        -1.18696
C         35.27702        19.05567        -1.54338
C         35.28371        20.40517        -1.05847
C         33.99088        21.08507        -0.77850
C         35.28135        23.26446        -0.31973
C         33.99738        22.59389        -0.51254
C         35.31297        24.61083         0.02170
C         34.08270        25.33289         0.28436
C         35.35083        27.43844         0.52621
C         34.14355        26.71709         0.59390
C         35.38204        28.86016         0.76465
C         34.12804        29.57768         0.99621
C         35.41843        31.72461         1.36557
C         34.13242        30.99102         1.09769
C         35.38176        33.17373         0.92725
C         34.15779        33.83493         0.88626
C         35.43320        35.98383         0.31293
C         34.11553        35.24657         0.46356
C         35.43321        37.49543         0.15251
C         34.09635        38.14908         0.50062
C         35.30191        40.28520         0.69522
C         34.06765        39.54948         0.56740
C         35.37654        41.67411         0.48966
C         34.13161        42.39774         0.37221
C         35.31377        44.43084        -0.52828
C         34.11221        43.77605         0.09664
C         35.45696        45.91925        -0.22363
C         34.20508        46.65691         0.05915
C         35.54355        48.90847        -0.18090
C         34.21868        48.15247        -0.03731
C         35.41006        50.21733        -0.92968
C         34.15970        50.91177        -0.99362
C         35.36700        52.96744        -1.68557
C         34.13753        52.29154        -1.37178
C         35.39482        54.35400        -2.00507
C         37.58337        19.32676        -2.33969
C         36.37971        18.50793        -2.12613
C         37.68243        20.58108        -1.55968
C         36.48748        21.13067        -1.02475
C         37.76977        23.22304        -0.41768
C         36.52260        22.42178        -0.22946
C         37.79531        24.58993        -0.14355
C         36.56981        25.31468         0.08914
C         37.81294        27.42674         0.19305
C         36.58844        26.72113         0.25861
C         37.79263        28.92363         0.04401
C         36.57708        29.59149         0.64002
C         37.84803        31.70281         0.82012
C         36.63800        30.98974         0.87661
C         37.85986        33.14635         0.93332
C         36.63328        33.88286         0.83913
C         37.88514        36.02465         0.96487
C         36.67577        35.29959         0.72989
C         37.87963        37.48987         1.00627
C         36.59706        38.15057         0.87319
C         38.14949        40.54329         0.93269
C         36.40326        39.48659         1.16194
C         37.92921        41.70815         0.23732
C         36.63780        42.39332         0.22979
C         37.78806        44.34346        -0.83993
C         36.58862        43.68364        -0.26697
C         37.84495        45.83133        -0.88749
C         36.62191        46.58646        -0.56817
C         37.79222        48.66605        -1.21452
C         36.68039        48.03896        -0.69657
C         37.82540        50.10026        -1.41004
C         36.59396        50.85128        -1.32869
C         37.82234        52.91463        -1.94339
C         36.58856        52.24329        -1.68720
C         37.82617        54.31760        -2.17986
C         36.58220        55.00431        -2.24046
C         40.03073        16.62205        -3.35593
C         38.87381        17.31421        -3.32094
C         40.15626        19.51036        -2.86731
C         38.82738        18.75647        -2.98730
C         40.15300        20.63346        -1.84140
C         38.96049        21.18493        -1.35643
C         40.30713        23.16299        -0.41557
C         39.00994        22.44373        -0.56834
C         40.28505        24.62858        -0.20713
C         39.04966        25.31235        -0.09657
C         40.29360        27.43198         0.14250
C         39.04392        26.72841         0.06849
C         40.29853        28.85179         0.37394
C         39.08917        29.58522         0.43044
C         40.33619        31.65041         0.82484
C         39.09488        30.97235         0.68037
C         40.33575        33.09617         1.16753
C         39.07349        33.86649         1.04928
C         40.37792        35.99826         1.33373
C         39.09063        35.27830         1.12906
C         40.39278        37.52466         1.19260
C         39.10292        38.22500         0.98953
C         40.42628        40.21912         0.22253
C         39.22232        39.61791         0.68944
C         40.37947        41.54150        -0.31220
C         39.02329        42.05865        -0.76176
C         40.30268        44.26765        -1.23379
C         39.01917        43.54376        -1.10411
C         40.20938        45.66839        -1.78238
C         38.97902        46.44317        -1.33884
C         40.27418        48.59652        -1.70485
C         38.93938        47.88016        -1.79730
C         40.27353        49.99669        -1.78131
C         39.03381        50.74655        -1.72560
C         40.28135        52.87159        -2.00933
C         39.05778        52.17928        -1.90596
C         40.29572        54.30101        -2.16516
C         39.07557        55.02573        -2.28760
C         40.32709        57.11799        -2.40689
C         39.12913        56.43778        -2.44986
C         42.50121        16.49508        -3.11540
C         41.30789        17.24924        -3.05465
C         42.61313        19.22504        -2.42778
C         41.36704        18.61161        -2.71956
C         42.62157        20.60066        -2.00174
C         41.43726        21.25647        -1.61490
C         42.73853        23.22565        -0.83399
C         41.52739        22.55835        -0.99398
C         42.78121        24.50794        -0.02262
C         41.50433        25.31479        -0.12894
C         42.78167        27.41984         0.19707
C         41.51917        26.72022         0.06390
C         42.77986        28.81290         0.45391
C         41.54570        29.53000         0.53530
C         42.82452        31.65413         0.60605
C         41.53771        30.94165         0.72384
C         42.86177        33.13989         0.66719
C         41.63550        33.84550         1.12761
C         42.85812        35.99750         0.94963
C         41.65232        35.31404         1.07323
C         42.86194        37.44046         0.87769
C         41.67544        38.17251         0.83401
C         42.85532        40.22860         0.03269
C         41.67834        39.54482         0.37378
C         42.82759        41.56793        -0.47826
C         41.55479        42.22852        -0.62637
C         42.76149        44.31313        -1.32924
C         41.51125        43.61564        -1.08045
C         42.73084        45.71468        -1.59073
C         41.49190        46.45178        -1.61739
C         42.77714        48.57330        -2.06973
C         41.49214        47.84089        -1.71086
C         42.75058        50.03525        -1.71120
C         41.51988        50.72819        -1.80673
C         42.76089        52.83309        -1.81936
C         41.52544        52.14673        -1.86570
C         42.79515        54.27172        -2.11930
C         41.52846        55.01099        -2.18695
C         42.77288        57.13961        -1.96152
C         41.55041        56.41721        -2.24057
C         43.72864        17.09598        -2.88192
C         45.10587        19.05986        -2.19836
C         43.82268        18.45998        -2.52701
C         45.10786        20.44263        -1.68518
C         43.93201        21.33719        -2.02688
C         45.18507        23.28344        -1.03110
C         43.96187        22.62323        -1.23466
C         45.18513        24.67660        -0.69045
C         44.01689        25.32836        -0.30438
C         45.27032        27.43669         0.06507
C         44.00599        26.72332        -0.02025
C         45.26402        28.78545         0.53741
C         44.04120        29.51363         0.61754
C         45.36185        31.64474         0.48514
C         44.06939        30.90843         0.73089
C         45.34430        33.13780         0.74615
C         44.14641        33.86233         0.81822
C         45.36537        35.97509         0.69414
C         44.12916        35.27736         0.84701
C         45.39910        37.40110         0.61435
C         44.15322        38.14639         0.81272
C         45.39384        40.19581        -0.16358
C         44.15164        39.62962         0.36336
C         45.30323        41.43537        -1.04006
C         44.02437        42.22570        -0.84148
C         45.21207        44.22723        -1.68319
C         43.99731        43.58793        -1.25752
C         45.06583        45.55090        -2.12499
C         43.96265        46.38986        -1.85665
C         45.25295        48.55596        -1.52185
C         44.08039        47.84052        -1.79200
C         45.08912        49.93993        -0.89486
C         43.93221        50.73058        -1.44304
C         45.15882        52.88978        -1.13981
C         43.95467        52.14905        -1.48825
C         45.19249        54.30000        -1.19325
C         44.07615        55.05476        -1.81254
C         43.93189        56.50973        -1.64321
C         47.56560        19.03772        -2.03352
C         46.31886        18.39302        -2.26005
C         47.67450        20.38348        -1.71599
C         46.43212        21.12734        -1.43526
C         47.65243        23.25216        -1.15123
C         46.45547        22.60427        -1.27917
C         47.66958        24.62467        -0.50146
C         46.45794        25.45232        -0.92456
C         47.75616        27.58884        -0.35162
C         46.46778        26.80817        -0.27667
C         47.76065        28.65468         0.71362
C         46.52463        29.38748         0.98430
C         47.82517        31.72664         1.07325
C         46.55904        30.96172         1.13078
C         47.81919        33.09872         0.69321
C         46.57764        33.82713         0.66709
C         47.82872        35.94249         0.41805
C         46.58934        35.24794         0.59926
C         47.82912        37.35370         0.25724
C         46.59861        38.09215         0.35582
C         47.85681        40.21647        -0.18534
C         46.57222        39.50667         0.01489
C         47.84923        41.63637        -0.67615
C         46.56191        42.28947        -1.06446
C         47.83047        44.38293        -1.59867
C         46.53027        43.58742        -1.52037
C         47.83981        45.85208        -1.32392
C         46.89348        46.67775        -1.88158
C         47.63794        48.67637        -0.75478
C         46.59421        48.00592        -1.41261
C         47.53914        50.06857        -0.41264
C         46.34966        50.74843        -0.71432
C         47.46118        52.89206        -0.21994
C         46.31324        52.17307        -0.67682
C         47.42307        54.30541        -0.21929
C         46.32370        54.98866        -0.70483
C         50.17224        20.46378        -1.72907
C         48.93929        21.09525        -1.66826
C         50.23662        23.27125        -1.26667
C         48.91522        22.56356        -1.51343
C         50.21031        24.58568        -0.55628
C         48.96953        25.39543        -0.58319
C         50.28259        27.38416         0.05373
C         49.01199        26.72417        -0.26584
C         50.25006        28.63370         0.73015
C         48.98808        29.02677         1.23145
C         50.30866        31.69247         1.05247
C         49.04784        31.17168         1.46151
C         50.29459        33.06491         0.66095
C         49.05653        33.78670         0.58758
C         50.29801        35.87665         0.22361
C         49.05786        35.20157         0.38587
C         50.29955        37.28887         0.01947
C         49.07520        38.02546        -0.00476
C         50.33039        40.08176        -0.43902
C         49.10255        39.42054        -0.24825
C         50.34715        41.53428        -0.67037
C         49.13322        42.14754        -1.33238
C         50.28658        44.42934        -0.71760
C         49.15143        43.69165        -1.37507
C         50.21384        45.76053        -0.38856
C         49.05708        46.53317        -0.87563
C         50.01256        48.66285         0.18206
C         48.95628        48.02596        -0.62748
C         49.89873        50.05856         0.43041
C         48.69821        50.77050         0.07014
C         49.75163        52.85472         0.78968
C         48.63586        52.17577         0.22254
C         51.40741        21.13517        -1.50916
C         52.74609        23.19562        -0.98475
C         51.48742        22.48131        -1.20388
C         52.75477        24.57089        -0.74923
C         51.52800        25.28633        -0.37493
C         52.74254        27.44726         0.12408
C         51.51418        26.73510        -0.12969
C         52.75697        28.68708         0.71851
C         51.49674        29.35972         1.22562
C         52.70872        31.56763         0.65681
C         51.51464        30.90186         0.95567
C         52.74871        32.99874         0.51663
C         51.53186        33.74195         0.46856
C         52.77730        35.85374         0.20866
C         51.53292        35.15514         0.26759
C         52.78805        37.25993         0.04250
C         51.54406        37.97161        -0.11300
C         52.83546        40.11178        -0.48151
C         51.53924        39.36171        -0.33929
C         52.64799        41.48389         0.11390
C         51.46246        42.23987        -0.36899
C         52.60286        44.38094         0.34717
C         51.61666        43.71997        -0.60818
C         52.41512        45.77426         0.70275
C         51.28274        46.48349         0.30353
C         52.22541        48.63640         1.19234
C         51.15813        47.92142         0.57759
C         52.19448        50.04744         1.34276
C         51.00065        50.77116         0.98542
C         50.88687        52.17467         1.16805
C         55.21093        23.18400        -0.93997
C         54.01265        22.52401        -1.10152
C         55.28350        24.59180        -0.74675
C         54.01212        25.33096        -0.77308
C         55.28597        27.36817         0.11555
C         54.00449        26.80257        -0.33479
C         55.29550        28.70431         0.58450
C         54.03630        29.42516         1.00530
C         55.26101        31.58239         0.59354
C         53.98289        30.80958         0.31920
C         55.24428        33.00030         0.58841
C         53.99751        33.70811         0.46467
C         55.23717        35.85099         0.48855
C         54.00831        35.12831         0.37356
C         55.23671        37.28149         0.44085
C         54.02421        37.98621         0.16011
C         55.19166        40.12902         0.44667
C         54.03226        39.39784         0.09686
C         55.15244        41.55966         0.62286
C         53.83071        42.22255         0.60237
C         54.87277        44.31335         1.42540
C         53.72264        43.68657         0.74029
C         54.74296        45.74724         1.79534
C         53.41740        46.41425         1.58271
C         54.61649        48.64219         2.09643
C         53.37233        47.91259         1.76742
C         54.53090        50.03696         2.14875
C         53.34743        50.71241         1.84659
C         57.77456        24.64087        -0.70288
C         56.49954        25.28792        -0.51461
C         57.74382        27.24732         0.49707
C         56.47999        26.64572        -0.06189
C         57.74495        28.75511         0.50397
C         56.51132        29.43533         0.62164
C         57.72060        31.59513         0.77317
C         56.47842        30.88344         0.68546
C         57.71003        33.02172         0.82642
C         56.46953        33.72739         0.71237
C         57.68968        35.88326         0.84922
C         56.46405        35.15311         0.68769
C         57.67785        37.31296         0.85959
C         56.44096        38.01163         0.65308
C         57.61273        40.17731         0.95758
C         56.41586        39.43487         0.69474
C         57.56678        41.60300         1.05342
C         56.29422        42.27693         0.95086
C         57.34552        44.45550         1.44206
C         56.22517        43.70977         1.23666
C         57.29799        45.95915         1.62312
C         55.95072        46.56382         1.92432
C         57.07108        48.58001         2.69323
C         55.87478        47.93033         2.23311
C         58.96607        25.31150        -0.53689
C         60.19075        27.38659         0.00883
C         59.00443        26.65055        -0.06738
C         60.18907        28.73728         0.37311
C         58.97741        29.45184         0.57139
C         60.15547        31.62786         0.91969
C         58.96046        30.89048         0.76825
C         60.14177        33.00785         1.03274
C         58.93525        33.73968         0.96208
C         60.10416        35.93647         1.20382
C         58.91959        35.18542         1.01122
C         60.08492        37.31837         1.23716
C         58.88177        38.04251         1.06347
C         60.02101        40.26427         1.29417
C         58.85486        39.49433         1.11019
C         59.96691        41.65454         1.36323
C         58.74814        42.34265         1.28001
C         59.63098        44.42072         2.40782
C         58.73467        43.86084         1.31828
C         59.46055        45.67559         2.91204
C         58.34456        46.49751         2.56281
C         58.21951        47.83394         2.96947
O         37.30308        40.17661         1.98926
O         49.50058        47.51610        -1.90281
O         34.14653        47.55185         1.27624
O         39.77290        22.35760         0.71943
O         49.01110        30.01236         2.24577
O         50.83580        24.53561         0.76122
O         46.08414        46.12618        -2.87523
O         46.35421        30.12024         2.25532
O         34.77363        35.38890        -0.86049
O         47.97811        41.38358         0.75268
O         45.61881        20.54796        -0.33110
O         49.62597        23.30121        -2.59113
O         38.08548        43.81124        -2.24076
O         29.62444        27.27203        -0.52600
O         27.51415        31.34600         3.18287
O         41.10009        33.35040         2.40975
O         52.89455        46.97113         2.82516
O         43.76092        54.60909        -3.17308
O         40.42658        36.86866         2.50841
O         27.19333        42.28774         2.32434
O         54.63459        44.67535         2.83405
O         33.74316        22.05121        -1.86702
O         53.99161        26.45211        -1.75201
O         31.19004        44.43180         2.00517
O         42.77722        32.53342        -0.67714
O         31.10924        48.84440         1.08401
O         48.75492        44.12317        -2.73143
O         44.25880        39.24027         1.77196
O         52.86791        41.54612         1.54913
O         37.87871        19.50643        -3.81804
O         33.01174        27.14558         2.63912
H         33.85562        27.54367         2.94358
O         54.16879        29.65096         2.43119
H         53.28321        29.51596         2.85141
O         35.94905        49.32005         1.16187
H         35.54037        48.67324         1.78644
O         35.55254        31.75818         2.83982
H         34.75745        32.20892         3.19625
O         49.13276        41.64235        -2.68751
H         48.86754        42.39602        -3.27112
O         51.51986        29.22759         2.68804
H         50.65199        29.56896         3.01764
O         52.24765        43.86363        -1.92520
H         51.61152        43.54423        -2.60090
O         53.94316        30.54977        -1.11170
H         53.93665        31.41076        -1.57965
O         57.74353        26.85445         1.93569
H         58.53899        27.26322         2.34004
O         45.59073        31.53509        -0.96267
H         44.78552        31.90471        -1.39461
O         38.74712        41.31951        -1.98425
H         38.12446        41.87529        -2.50833
O         37.66022        29.16097        -1.41572
H         38.44066        28.75266        -1.84793
O         42.72258        48.59540        -3.54808
H         42.63591        47.66678        -3.85413
O         35.64475        37.77602        -1.26264
H         35.18253        37.05829        -1.75615
O         44.68074        49.61574         0.49695
H         44.63792        50.45967         0.99568
O         32.98106        48.23366        -2.03215
H         32.41273        48.80919        -2.58627
O         59.30513        44.30083         0.04582
H         58.95197        45.20872        -0.12638
O         57.66945        46.50027         0.27165
H         57.80429        47.46700         0.38471
O         40.05023        45.49672        -3.25090
H         39.30747        44.85007        -3.35393
O         44.14937        21.70884        -3.43716
H         43.28069        21.94550        -3.82649
O         53.10248        40.31001        -1.90431
H         53.13692        39.42884        -2.33174
O         35.06605        44.36674        -1.98020
H         35.93369        44.45218        -2.43392
O         47.80794        28.23064        -1.67243
H         47.67485        27.51125        -2.33294
O         46.59729        25.68784        -2.36741
H         45.74449        26.04127        -2.69813
O         47.50265        24.37818         0.92555
H         48.34982        24.04095         1.28764
O         38.64977        47.81541        -3.23864
H         39.25017        47.11898        -3.61040
O         36.56397        21.98247         1.19558
H         37.51122        21.89755         1.44654
O         42.88155        24.10178         1.38127
H         42.12782        23.50228         1.57124
O         45.19348        40.87265        -2.40524
H         45.05325        41.62291        -3.02219
O         40.35801        20.19349        -4.15036
H         39.45339        20.37707        -4.50022
H         22.12090        26.87425         2.14441
H         22.11382        29.33072         2.20012
H         22.08021        31.21647         1.78119
H         22.09126        33.63959         1.69084
H         22.08690        35.50858         1.67678
H         22.06976        37.91063         1.34599
H         22.08508        39.67272         0.57355
H         22.08681        42.03257         0.00484
H         22.10255        43.89117        -0.36430
H         22.14961        46.25534        -1.02894
H         25.42855        23.50086         1.43613
H         23.34432        24.72439         1.86478
H         25.49152        49.60547        -1.45871
H         23.38425        48.34504        -1.43147
H         27.08115        22.54050         1.21017
H         27.13409        50.50628        -1.64583
H         29.13645        21.37809         0.65042
H         29.23062        51.72102        -1.79411
H         32.84025        19.28313        -0.19296
H         30.79780        20.46170         0.36622
H         32.85002        54.03804        -1.65399
H         30.76198        52.85849        -1.23382
H         34.35239        18.46594        -1.46559
H         34.46277        54.93212        -2.04543
H         36.33532        17.49154        -2.53896
H         36.55712        56.07908        -2.46170
H         40.03003        15.55561        -3.62506
H         37.92915        16.81814        -3.58333
H         40.34255        58.21470        -2.48253
H         38.20240        57.01269        -2.57512
H         42.45081        15.42858        -3.37730
H         42.70937        58.23542        -1.88526
H         44.63909        16.48669        -2.95939
H         44.78569        57.10097        -1.28367
H         48.47530        18.44437        -2.20301
H         46.35280        17.34083        -2.57582
H         48.28803        54.88479         0.12760
H         46.35318        56.08572        -0.73336
H         50.21497        19.37626        -1.88211
H         49.71511        53.94047         0.94621
H         52.31877        20.52170        -1.53214
H         51.71564        52.74174         1.61150
H         56.13759        22.59464        -0.96872
H         54.03113        21.44017        -1.27654
H         55.41151        50.63129         2.42916
H         53.34211        51.80537         1.94691
H         57.79912        23.60870        -1.07660
H         57.03653        49.63371         2.99947
H         59.91216        24.81543        -0.80138
H         61.14040        26.90705        -0.27216
H         61.15003        29.26646         0.40867
H         61.12311        31.11014         0.95228
H         61.09982        33.53060         1.15107
H         61.06556        35.42470         1.34171
H         61.03068        37.85143         1.40112
H         61.00083        39.77537         1.37750
H         60.90442        42.21550         1.48004
H         60.51033        43.83699         2.71747
H         60.19497        46.08046         3.62667
H         59.04230        48.30222         3.53047
