         344
 CSIRO Nanostructure Databank - Neutral Graphene Oxide Data Set
C          1.16749         2.10433         0.78461
C          1.15523         3.50603         0.71597
C          2.35964         1.40112         0.72338
C          2.34791         4.23973         0.58230
C          1.17928         6.46418         0.70734
C          1.20131         7.84687         0.66423
C          2.35804         5.69625         0.52907
C          2.41867         8.54538         0.44999
C          1.45689        10.85341         0.80938
C          1.46416        12.19311         0.50821
C          2.45078         9.98442         0.27946
C          2.15543        12.69723        -0.71743
C          1.10843        14.96840        -0.68858
C          1.12289        16.38987        -0.55847
C          2.25686        14.21753        -0.75647
C          2.30638        17.09813        -0.48370
C          2.35823        18.49848        -0.14602
C          3.59421         2.09336         0.58551
C          3.58511         3.52743         0.51273
C          4.81570         1.38749         0.50427
C          4.82180         4.22364         0.35429
C          3.58602         6.38380         0.31852
C          3.60700         7.79601         0.30223
C          4.82853         5.64008         0.18506
C          4.92059         8.53111         0.23510
C          3.60092        10.58332        -0.35111
C          3.54232        11.96639        -1.01133
C          4.78676         9.89731        -0.36494
C          4.78091        12.77789        -0.64699
C          3.55122        14.88937        -0.93750
C          3.57656        16.41241        -0.77102
C          4.80888        14.14000        -0.68357
C          4.84378        17.06904        -0.39346
C          3.54469        19.15221         0.00560
C          4.81854        18.46536        -0.08418
C          6.05019         2.06080         0.37324
C          6.05379         3.50445         0.31027
C          7.27146         1.35775         0.28379
C          7.27810         4.20373         0.22252
C          6.04007         6.30486        -0.08382
C          5.99088         7.73637        -0.55483
C          7.27153         5.62416         0.03664
C          7.31005         8.46983        -0.46008
C          6.01540        10.55769        -0.95065
C          6.06095        12.00512        -0.41130
C          7.31054         9.84167        -0.61344
C          7.28959        12.74878        -0.94311
C          6.07119        14.89045        -0.53878
C          6.05117        16.35191        -0.38557
C          7.26411        14.21065        -0.53869
C          7.27546        17.05569        -0.16338
C          6.01502        19.14516         0.14800
C          7.26130        18.46780         0.09298
C          8.51157         2.03661         0.20013
C          8.52505         3.47828         0.21587
C          9.73908         1.33629         0.14355
C          9.74877         4.16672         0.22367
C          8.50750         6.35576         0.00834
C          8.52560         7.73426        -0.21211
C          9.74988         5.65181         0.49711
C          9.77743         8.45840        -0.23284
C          8.53845        10.60410        -0.52078
C          8.55408        12.00227        -0.56466
C          9.77515         9.86932        -0.37337
C          9.77216        12.74012        -0.32745
C          8.57878        14.94105        -0.64162
C          8.52573        16.36206        -0.13205
C          9.74437        14.12655        -0.13170
C          9.69023        17.04376         0.17906
C          8.48162        19.16379         0.27856
C          9.70794        18.47650         0.33009
C         10.96824         2.02139         0.13460
C         10.97262         3.45537         0.19067
C         12.22077         1.33153         0.11165
C         12.22663         4.14851         0.25043
C         11.04371         6.32865         0.11745
C         11.01258         7.75671        -0.12924
C         12.22846         5.60702         0.17863
C         12.22000         8.46839        -0.30984
C         11.00503        10.57668        -0.44114
C         11.02995        12.01591        -0.35856
C         12.22184         9.86262        -0.49269
C         12.24963        12.70606        -0.38373
C         10.94632        14.81857         0.33669
C         10.92388        16.31843         0.64486
C         12.26409        14.09381         0.07249
C         12.18911        17.06465         0.30473
C         10.95851        19.15589         0.44971
C         12.19416        18.46254         0.34573
C         13.42930         2.00451         0.20376
C         13.42844         3.43121         0.28980
C         14.71692         1.18742         0.12793
C         14.71717         4.17038         0.57561
C         13.51163         6.27990         0.03702
C         13.48712         7.75698        -0.04206
C         14.70071         5.60732         0.09533
C         14.77183         8.48457        -0.16131
C         13.47327        10.59623        -0.81588
C         13.51398        12.07264        -0.66279
C         14.77331         9.86785        -0.70149
C         14.72873        12.75719        -0.64669
C         13.49234        14.88954        -0.19669
C         13.44386        16.36423        -0.00957
C         14.79313        14.16716        -0.30562
C         14.71516        17.06709         0.33317
C         13.47253        19.18122         0.29180
C         14.67666        18.54654         0.32041
C         15.98599         1.95646         0.57506
C         15.94396         3.39826         0.03765
C         17.26280         1.28335         0.12431
C         17.25720         4.13425         0.25591
C         16.03436         6.25229        -0.25699
C         16.05746         7.75715        -0.17870
C         17.21929         5.61944         0.49622
C         17.21526         8.47837        -0.16212
C         16.04323        10.60537        -0.61792
C         16.01805        12.05175        -1.05281
C         17.20239         9.92701        -0.38371
C         17.27323        12.78671        -0.63609
C         15.96526        14.88644        -0.26509
C         16.00437        16.30548         0.17279
C         17.24087        14.28146        -0.80071
C         17.26187        17.08183         0.03634
C         15.98407        19.28837         0.51421
C         17.25202        18.49418         0.22398
C         18.44000         1.99554        -0.02286
C         18.44324         3.46362         0.10468
C         19.68778         1.33198        -0.20255
C         19.71108         4.17874         0.04746
C         18.51465         6.33033         0.18780
C         18.49330         7.83315         0.32965
C         19.70372         5.63486         0.05827
C         19.74719         8.52219        -0.12651
C         18.49055        10.62352        -0.74068
C         18.46120        12.11333        -0.48841
C         19.74704         9.92062        -0.30394
C         19.70765        12.82647        -0.35818
C         18.49767        14.96990        -0.34390
C         18.48268        16.39101        -0.14514
C         19.69115        14.24220        -0.30220
C         19.72859        17.10668        -0.03213
C         18.45266        19.19751         0.21897
C         19.71392        18.53478         0.12491
C         20.91381         2.02763        -0.17923
C         20.91109         3.48199        -0.07434
C         22.13997         1.34467        -0.24373
C         22.17184         4.18737        -0.12566
C         20.96243         6.34302        -0.09933
C         20.95651         7.79527        -0.16185
C         22.16871         5.62960        -0.17757
C         22.16479         8.50975        -0.32260
C         20.95476        10.64165        -0.27001
C         20.96184        12.10395        -0.22242
C         22.18470         9.92372        -0.22771
C         22.13177        12.77401         0.08437
C         21.01737        14.95439        -0.37354
C         20.95774        16.42128        -0.04619
C         22.09916        14.24128         0.42638
C         22.18058        17.10595         0.10314
C         20.93560        19.23142         0.17598
C         22.17701        18.54792         0.15061
C         23.38955         2.02788        -0.14180
C         23.38533         3.48819        -0.13253
C         24.58922         1.33931        -0.05734
C         24.64337         4.19237        -0.20554
C         23.42873         6.31006        -0.37254
C         23.40823         7.77672        -0.57180
C         24.62968         5.62472        -0.38931
C         24.71020         8.54706        -0.48867
C         23.42341        10.62594        -0.03873
C         23.36391        12.02706         0.51031
C         24.64648         9.96592        -0.09126
C         24.65318        12.79701         0.33886
C         23.43261        14.94993         0.26870
C         23.42535        16.38157         0.17376
C         24.62576        14.22019         0.34383
C         24.64663        17.11318         0.12515
C         23.40800        19.24412         0.14272
C         24.64241        18.55523         0.08329
C         25.85229         2.05412         0.31679
C         25.85688         3.49849        -0.11732
C         27.11506         1.32660        -0.03522
C         27.12042         4.18794        -0.18516
C         25.92752         6.33725        -0.73384
C         25.95394         7.78321        -0.29406
C         27.16035         5.59451        -0.30072
C         27.12837         8.42070         0.03892
C         25.86333        10.65423         0.19946
C         25.86328        12.05551         0.33538
C         27.11384         9.87037         0.35293
C         27.18865        12.78723         0.45674
C         25.93636        14.96579         0.50677
C         25.89397        16.42178         0.09712
C         27.05080        14.17002        -0.19494
C         27.09135        17.11721        -0.00920
C         25.87788        19.24833         0.06081
C         27.11039        18.55795         0.02588
C         28.31062         2.00253        -0.14827
C         28.33986         3.45238        -0.12956
C         29.56627         1.29719        -0.28473
C         29.58305         4.14090        -0.17822
C         28.38510         6.30039        -0.17303
C         28.39480         7.72242        -0.03372
C         29.61901         5.57006        -0.15120
C         29.64375         8.42531        -0.00371
C         28.42674        10.59430         0.34253
C         28.37208        12.02139        -0.17224
C         29.68193         9.84713         0.11707
C         29.64944        12.78821         0.09753
C         28.39059        14.90539        -0.27291
C         28.37828        16.39844        -0.17027
C         29.65127        14.17175         0.03594
C         29.63167        17.10106         0.14342
C         28.35645        19.22413         0.11969
C         29.59248        18.52138         0.24348
C         30.75496         1.96704        -0.31150
C         30.80406         3.40275        -0.24376
C         32.02661         4.10500        -0.26074
C         30.86591         6.25821        -0.16320
C         30.87715         7.71002        -0.12471
C         32.05677         5.49289        -0.21422
C         32.07634         8.45504        -0.17399
C         30.88816        10.56073         0.12882
C         30.86560        12.02479         0.56534
C         32.08710         9.83880        -0.04185
C         32.11887        12.81843         0.32438
C         30.86585        14.92819         0.18644
C         30.85050        16.37763         0.25262
C         32.09157        14.17838         0.23589
C         32.03679        17.12464         0.48232
C         30.80962        19.22018         0.45890
C         32.00542        18.51698         0.57657
O          3.60732        11.80142        -2.40658
O         24.08827         8.24864        -1.80487
O         14.13005        10.03003        -2.01538
O         11.69220        14.15537         1.42554
O         13.36360        15.77873        -1.38109
O         14.13835         8.37034         1.17017
O         27.80260        10.27008         1.62564
O          3.62449        15.77873        -2.09611
O         28.47014        15.69548        -1.50744
O         15.37929        16.50079         1.51299
O          6.21604        11.84197         1.03026
H          6.30559        12.73470         1.42725
O         15.77134         3.28089        -1.40343
H         15.97639         4.16946        -1.79539
O          9.68403         5.77484         1.97093
H         10.48963         5.34841         2.33487
O         18.51787        10.52477        -2.22712
H         19.37706        10.89370        -2.52803
O         27.52222        12.94923         1.84681
H         27.63779        12.04132         2.21979
O          7.24484        12.75285        -2.39074
H          7.94912        13.37217        -2.69552
O         26.59977        13.97097        -1.55770
H         26.95171        14.73791        -2.07508
O         21.75673        14.31809         1.83889
H         22.22347        13.57176         2.28690
O          5.38885         8.71892         1.60502
H          5.84851         9.58677         1.65513
O         30.72148        11.93252         2.03916
H         30.57658        12.84275         2.37622
O          5.86830        10.48698        -2.38007
H          5.04238        11.02210        -2.62382
O          8.83433        15.07222        -2.10150
H          8.15950        15.69128        -2.45694
O          1.28925        12.28020        -1.79233
H          1.93471        12.03708        -2.52562
O         21.43400        14.85682        -1.77183
H         20.74174        15.28174        -2.32113
O         14.78038         4.25561         2.03958
H         15.46320         4.94298         2.26081
O         16.95404         5.83670         1.94060
H         17.67514         5.38831         2.43414
O         18.45815         8.11362         1.78046
H         17.68513         7.61795         2.14382
O         16.05137        12.04977        -2.52378
H         16.80281        11.45731        -2.77591
O         25.83986         2.10668         1.81217
H         25.00103         2.54477         2.07343
O         26.21011        15.03616         1.93188
H         25.44674        15.47721         2.35953
O         16.27640         5.93806        -1.67613
H         15.67119         6.48584        -2.22034
O         25.99172         6.35459        -2.20552
H         25.28484         6.98366        -2.49875
O         28.20954        11.86648        -1.60273
H         27.66897        12.63013        -1.93447
O          5.58272         7.69662        -1.94528
H          5.67789         8.61149        -2.32206
O         15.98611        20.51348        -0.22711
H         15.95078        20.29739        -1.18124
O         10.81607        16.42761         2.10975
H         11.37192        15.70403         2.48437
O         14.88159         0.71345        -1.21519
H         15.12671         1.49424        -1.76394
O         23.21544        11.88556         1.99752
H         24.06487        11.52776         2.33755
O         16.04302         1.94442         2.02054
H         15.44565         2.66587         2.34936
O         17.19685        14.52891        -2.26020
H         16.62121        13.81937        -2.64900
H          0.21650         1.56315         0.88684
H          0.18783         4.02359         0.76315
H          2.36218         0.30302         0.77576
H          0.21820         5.96076         0.87830
H          0.26415         8.41078         0.77220
H          0.75715        10.46393         1.56485
H          0.82960        12.88305         1.08840
H          0.13825        14.45278        -0.64097
H          0.16840        16.91534        -0.40799
H          1.40860        19.04008        -0.02252
H          4.80340         0.28808         0.54844
H          3.55647        20.22545         0.24529
H          7.26118         0.25753         0.30072
H          5.99613        20.21980         0.38215
H          9.73169         0.23616         0.13274
H          8.46172        20.25638         0.40657
H         12.21701         0.23371         0.03960
H         10.96140        20.25396         0.51819
H         14.60518         0.28297         0.77988
H         13.44555        20.28162         0.30415
H         17.29118         0.18326         0.08866
H         16.03197        19.58424         1.59998
H         19.69761         0.23515        -0.29093
H         18.43056        20.29026         0.34355
H         22.14103         0.24656        -0.31020
H         20.92949        20.32989         0.23803
H         24.58461         0.23870        -0.05310
H         23.40570        20.34411         0.16087
H         27.10117         0.22617        -0.05223
H         25.87681        20.34781         0.09763
H         29.54550         0.19854        -0.33079
H         28.36970        20.32300         0.17187
H         31.70229         1.41304        -0.38663
H         32.96942         3.54118        -0.31086
H         33.03272         5.99666        -0.22517
H         33.03828         7.93675        -0.28640
H         33.05435        10.35964        -0.03865
H         33.09207        12.30930         0.37031
H         33.04777        14.71665         0.16706
H         33.00150        16.61169         0.58960
H         30.79937        20.31687         0.53049
H         32.94290        19.06471         0.74776
