         349
 CSIRO Nanostructure Databank - Neutral Graphene Oxide Data Set
C          1.68025         2.04873        -1.95462
C          1.62097         3.49883        -1.88964
C          2.83962         1.38635        -1.74845
C          2.63844         4.22114        -1.32870
C          1.61092         6.43904        -1.78519
C          1.70004         7.81163        -1.93084
C          2.70763         5.67620        -1.32472
C          2.90131         8.50076        -1.64756
C          2.05240        10.66560        -2.59327
C          2.22883        12.02349        -2.92573
C          3.04777         9.89635        -1.99029
C          3.42319        12.71967        -2.70056
C          2.62260        14.90747        -3.58499
C          2.85759        16.23811        -3.94133
C          3.61098        14.10205        -2.99736
C          4.06758        16.89265        -3.60231
C          4.28753        18.27709        -3.91123
C          4.09257         2.18552        -1.47661
C          3.73375         3.42540        -0.65338
C          5.22932         1.41378        -0.84423
C          4.95420         4.22297        -0.28324
C          3.89388         6.35287        -0.91997
C          4.00031         7.76147        -1.09225
C          5.00891         5.60260        -0.34220
C          5.21419         8.43973        -0.70069
C          4.36459        10.51623        -1.77774
C          4.57745        11.95784        -2.16051
C          5.33016         9.84619        -0.87793
C          5.63164        12.73204        -1.44542
C          5.01581        14.66422        -2.87041
C          5.06931        16.17567        -2.89398
C          5.78933        14.04363        -1.72711
C          6.21050        16.84591        -2.42649
C          5.46183        18.89747        -3.57555
C          6.46892        18.20709        -2.82009
C          6.14344         2.00036        -0.04234
C          5.99393         3.42145         0.37522
C          7.48093         1.32459         0.17843
C          7.20767         4.14160         0.95236
C          6.21256         6.29881         0.08960
C          6.30861         7.72225        -0.13010
C          7.28287         5.58766         0.67332
C          7.52269         8.41441         0.14819
C          6.40095        10.56875        -0.34001
C          6.30115        12.08730        -0.24073
C          7.54180         9.86930         0.14332
C          7.59619        12.78485         0.12052
C          6.68096        14.91187        -0.87153
C          7.14260        16.18285        -1.55409
C          7.79830        14.12640        -0.22559
C          8.32281        16.80595        -1.20502
C          7.68369        18.81051        -2.47461
C          8.65176        18.12832        -1.69359
C          8.30238         1.87074         1.36599
C          8.44208         3.38055         1.23157
C          9.64094         1.08021         1.50579
C          9.63496         4.05370         1.48373
C          8.53254         6.23109         0.90196
C          8.64952         7.60685         0.53726
C          9.68343         5.51212         1.37818
C          9.96426         8.10989         0.51547
C          8.61937        10.64352         0.68443
C          8.62084        12.08385         0.80037
C          9.94496        10.14439         0.73140
C          9.73623        12.76376         1.38660
C          8.96451        14.78181         0.20464
C          9.40443        16.06638        -0.46053
C          9.84989        14.13932         1.11240
C         10.24764        17.00708         0.37550
C          9.86606        18.75871        -1.31843
C         10.70167        18.23777        -0.30185
C         10.90582         1.91188         1.49660
C         10.85639         3.31281         1.68278
C         12.13300         1.25607         1.40728
C         12.10278         3.98947         2.06245
C         10.88867         6.20593         1.64061
C         11.02814         7.56185         1.23887
C         12.09789         5.54205         2.13426
C         12.19941         8.36352         1.53724
C         10.97974        10.60079         1.52742
C         10.80654        11.96798         2.22284
C         12.19010         9.81635         1.58549
C         12.16694        12.66105         2.25301
C         10.48321        15.13119         2.04792
C         11.06871        16.43075         1.50741
C         12.44612        13.93801         2.83831
C         12.39034        17.03550         1.76530
C         11.75195        18.93356         0.30942
C         12.56688        18.34483         1.31891
C         13.38391         1.95450         1.45302
C         13.38903         3.34119         1.80487
C         14.60668         1.30261         1.21093
C         14.59720         4.07514         1.84227
C         13.38638         6.24904         2.03562
C         13.36350         7.68180         1.92394
C         14.58855         5.50859         2.04505
C         14.54225         8.45108         2.33270
C         13.39182        10.54581         1.74824
C         13.25289        11.99745         1.61345
C         14.60645         9.92303         2.17600
C         14.27713        12.79055         1.09511
C         13.44848        14.80293         2.28776
C         13.51767        16.32990         2.56752
C         14.26859        14.17302         1.33487
C         14.87313        17.05203         2.32912
C         13.58716        19.20500         2.02962
C         14.88619        18.47742         2.28316
C         15.83225         2.01384         1.23243
C         15.83114         3.41655         1.53067
C         17.06103         1.36811         0.92913
C         17.06177         4.14629         1.44523
C         15.84789         6.20114         2.00981
C         15.87132         7.62905         2.35604
C         17.04351         5.56188         1.73068
C         17.10064         8.40140         2.32829
C         15.82195        10.54254         2.60301
C         16.06968        12.02200         2.89119
C         16.93784         9.69587         2.82463
C         17.33484        12.73997         2.40477
C         16.30303        15.05996         1.92612
C         16.17532        16.43825         2.36729
C         17.31443        14.20800         2.32047
C         17.32182        17.13759         2.73519
C         16.03327        19.21894         2.49988
C         17.30867        18.61220         3.01452
C         18.26259         2.08432         0.84167
C         18.25379         3.49074         1.06896
C         19.52179         1.40802         0.58645
C         19.57418         4.23110         1.02606
C         18.23196         6.40121         1.38703
C         18.40251         7.76768         2.00488
C         19.40531         5.73040         0.77579
C         19.74866         8.52006         1.81311
C         18.86029        10.77299         2.53440
C         18.57957        12.15499         2.24612
C         19.80321        10.00854         1.88858
C         19.65256        12.92896         1.57925
C         18.60373        14.90736         2.65001
C         18.61115        16.42345         2.78941
C         19.78929        14.33025         2.00203
C         19.82873        17.14099         2.39886
C         18.52131        19.24642         2.37220
C         19.71592        18.57172         2.15207
C         20.68190         2.09410         0.30438
C         20.58396         3.58284         0.04622
C         21.94727         1.44062         0.17795
C         21.92302         4.29031         0.12730
C         20.63523         6.54208         0.48405
C         20.79292         7.90338         0.94548
C         21.91355         5.74036         0.07247
C         21.94170         8.63661         0.48034
C         21.05205        10.76318         1.49207
C         20.82061        12.18877         1.03110
C         22.03842        10.04352         0.62543
C         22.07800        12.95361         0.76534
C         20.96929        15.03697         1.87349
C         21.00365        16.46251         2.11136
C         22.15380        14.39121         1.24759
C         22.30082        17.21672         2.05175
C         20.87157        19.22448         1.63170
C         22.16505        18.65757         1.60063
C         23.13937         2.14041         0.01372
C         23.13499         3.60038         0.01592
C         24.39944         1.47354        -0.12159
C         24.36191         4.29266        -0.22415
C         23.17142         6.50602         0.17679
C         23.09729         7.96020        -0.02946
C         24.45665         5.74561        -0.08694
C         24.25233         8.65507        -0.44606
C         23.19205        10.75155         0.23166
C         23.31388        12.17682         0.51292
C         24.28340        10.06268        -0.35989
C         24.53159        12.83919         0.45330
C         23.46638        14.95937         1.47853
C         23.58751        16.33045         1.96209
C         24.71429        14.12883         1.26091
C         24.87157        16.98540         1.62937
C         23.16359        19.45283         0.99138
C         24.55760        19.15291         1.02168
C         25.57968         2.16200        -0.35287
C         25.56905         3.61153        -0.48742
C         26.84277         1.48307        -0.47010
C         26.73184         4.33419        -0.85065
C         25.55339         6.44870        -0.76068
C         25.39170         7.88864        -1.04241
C         26.67016         5.72746        -1.17959
C         26.62511         8.61964        -1.54319
C         25.46051        10.85302        -0.77700
C         25.66467        12.20297        -0.16928
C         26.64173        10.12417        -1.36964
C         26.85907        12.88926        -0.40734
C         25.93277        14.95799         0.80533
C         25.86545        16.44856         0.86921
C         27.02894        14.29755         0.03077
C         26.82968        17.25350        -0.02024
C         25.58169        19.44953         0.16619
C         26.94284        18.78013         0.36933
C         28.01388         2.16196        -0.68007
C         28.07397         3.67737        -0.67247
C         29.26666         1.45499        -0.78751
C         29.13890         4.24233        -1.58095
C         27.74360         6.38123        -2.07079
C         27.90537         7.88795        -1.73582
C         29.01891         5.52177        -2.16379
C         28.85705         8.79280        -2.53766
C         27.97019        10.79284        -1.21457
C         27.98330        12.26945        -1.05349
C         29.15099        10.09351        -1.78751
C         29.07958        13.01841        -1.48023
C         28.07350        15.11433        -0.62963
C         28.21812        16.57052        -0.18268
C         29.03902        14.47593        -1.36843
C         29.09391        17.37318        -1.12404
C         27.96695        19.47318        -0.47834
C         28.97702        18.80519        -1.16859
C         30.36907         2.08953        -1.26433
C         30.29146         3.44018        -1.79179
C         31.33589         3.89185        -2.61653
C         30.05347         5.88115        -3.05659
C         30.12152         8.21612        -3.10835
C         31.20077         5.10633        -3.27163
C         31.27217         8.92774        -3.24974
C         30.33829        10.91146        -2.14831
C         30.31568        12.36017        -1.91379
C         31.36666        10.29491        -2.80977
C         31.45723        13.10466        -2.10150
C         30.10675        15.26743        -2.02658
C         30.06349        16.75021        -1.91245
C         31.39024        14.55067        -2.33205
C         30.93240        17.51738        -2.71786
C         29.89611        19.55854        -1.96704
C         30.86243        18.91675        -2.72023
O         21.02349         6.32826        -0.92903
O         25.73280        10.83947        -2.23672
O         19.73547        12.53597         0.14014
O         30.43858        14.86147        -3.39840
O         18.02718        10.23189         3.50540
O         10.25560         9.21353        -0.27922
O         15.24219        12.67270         3.51160
O         27.13610        14.46810         1.53627
O          5.05040        10.89790        -3.05103
O         19.43930         7.77562         3.05273
O         24.90384        18.29826         2.09695
O         29.98753         7.03761        -3.84179
O         18.78094        15.51454         3.95069
O         18.35028         6.25408        -0.09398
O         21.92041        14.03316        -0.20251
O          6.07734         3.70557         1.82255
O         15.10757         7.93157         3.56946
O         23.05194        16.83279         3.24721
O         25.54540         8.19916        -2.48567
O         11.97523         4.72665         3.32822
O         15.43421        14.78663         0.85303
O          9.89086        17.32909         1.73952
O         24.06099         6.17817         1.28867
O         10.04086        15.11746         3.19288
O         28.88543        10.03776        -0.34285
O          8.25687         1.57700        -1.01684
H          7.70543         1.35182        -1.79526
O         13.25081        16.59458         3.96632
H         12.58125        15.93977         4.28121
O         28.48459         4.04419         0.69497
H         27.82070         3.67102         1.31315
O         11.92439        14.21052         4.06761
H         11.25045        13.52459         4.28464
O         27.40528        18.91895         1.72296
H         26.64229        18.74353         2.32274
O         10.35310        15.62066        -1.49499
H          9.85346        15.10136        -2.16051
O         25.01305        13.63763         2.60614
H         25.99767        13.64369         2.69888
O          5.38501        12.35008         0.87654
H          5.31881        13.33080         0.96004
O         20.08603         3.74562        -1.30060
H         20.14348         4.70690        -1.52424
O          5.72248        14.24949        -4.09322
H          5.17506        14.52674        -4.85817
O         15.30952        12.25089         0.37798
H         15.89248        12.99846         0.11101
O         20.18772         4.13508         2.34071
H         19.52697         4.38555         3.02033
O          4.60734         2.64007        -2.76438
H          4.45156         1.93390        -3.42507
O          5.82048        15.33179         0.25018
H          6.34049        15.94413         0.81448
O         28.10574         9.18278        -3.73053
H         27.88099         8.35046        -4.20597
O         10.30797        11.82980         3.57247
H          9.38081        11.51466         3.53577
O         21.76454        10.97352         2.76700
H         21.90282        10.09833         3.18896
O          3.19837         2.92447         0.60592
H          3.12261         3.67802         1.22766
O         17.38321        18.84756         4.46314
H         16.66037        18.33893         4.88783
O         26.24261        17.18338        -1.34209
H         25.41804        17.71568        -1.34375
O          9.75471         0.02392         0.54900
H          9.68082         0.42183        -0.34817
O         13.01835        19.56310         3.30252
H         12.88642        18.72619         3.80531
O         28.89408        16.54020         1.09169
H         28.40666        15.89750         1.66211
O         27.19865         6.34684        -3.42742
H         26.37308         6.89955        -3.40701
O          7.57164         1.60235         2.58223
H          6.81786         2.24336         2.62710
H          0.76626         1.50291        -2.23182
H          0.74572         3.99126        -2.33700
H          2.90438         0.29450        -1.87008
H          0.67029         5.93830        -2.05053
H          0.82878         8.35982        -2.31287
H          1.07088        10.22031        -2.80721
H          1.37220        12.55182        -3.36804
H          1.62846        14.48320        -3.78731
H          2.06372        16.81036        -4.44224
H          3.50786        18.82403        -4.46128
H          5.41206         0.38715        -1.20781
H          5.63980        19.94403        -3.86258
H          7.33470         0.21727         0.29896
H          7.88720        19.84203        -2.79924
H          9.60107         0.58225         2.51052
H         10.09388        19.75064        -1.73799
H         12.13775         0.16812         1.24605
H         12.00810        19.94565        -0.04018
H         14.61010         0.23067         0.96471
H         13.77409        20.15334         1.46722
H         17.05963         0.28594         0.73176
H         15.97239        20.31687         2.43862
H         19.54246         0.31021         0.66940
H         18.44861        20.30237         2.06710
H         21.97673         0.34165         0.24246
H         20.77284        20.27909         1.33141
H         24.42312         0.37555        -0.05169
H         22.83316        20.36600         0.47364
H         26.85619         0.38450        -0.39858
H         25.41669        20.10435        -0.70112
H         29.29890         0.38814        -0.52144
H         27.92781        20.57262        -0.52851
H         31.32043         1.54886        -1.37499
H         32.22315         3.26268        -2.77291
H         31.96809         5.46619        -3.96881
H         32.10891         8.49452        -3.81338
H         32.26675        10.85274        -3.10108
H         32.42299        12.60998        -2.27722
H         32.33986        15.12375        -2.37797
H         31.65965        17.00591        -3.36282
H         29.81092        20.65451        -1.98211
H         31.55873        19.49774        -3.34044
