         276
 CSIRO Nanostructure Databank - Neutral Graphene Oxide Data Set
C        -10.59672         0.98599        -1.35625
C        -10.20308         1.62028        -0.02853
C         -8.92621         0.85984         0.47531
C         -7.60944         1.54514         0.84783
C         -6.27872         0.82239         0.45021
C         -5.03943         1.56199         0.85555
C         -3.89848         0.81648         1.53951
C         -2.54786         1.58406         1.40772
C         -1.24607         0.85049         1.53756
C          0.07556         1.58566         1.26869
C          1.40790         0.77675         1.36243
C          2.57911         1.47890         0.60863
C          3.68353         0.59758         0.06892
C          4.82307         1.24912        -0.64855
C          6.14277         0.56484        -0.53135
C          7.40565         1.32799        -0.72871
C          8.60038         0.56211        -1.21961
C          9.87683         1.32802        -1.47518
C         11.13369         0.60426        -1.21552
C        -10.19804         3.14653        -0.12359
C         -9.48029         4.07275         0.48811
C         -7.34990         2.90674         0.21779
C         -6.39782         3.76400         1.01056
C         -5.09548         3.03273         1.25349
C         -3.78573         3.76397         1.06854
C         -2.60381         2.89483         0.60496
C         -1.30175         3.68108         0.48168
C          0.00797         2.99711         0.73144
C          1.22942         3.66111         0.19241
C          2.51384         2.90516         0.13226
C          3.52839         3.46516        -0.85053
C          4.77586         2.68390        -1.13680
C          6.07437         3.40659        -1.44235
C          7.36258         2.85530        -0.83670
C          8.61887         3.49977        -1.39360
C          9.81567         2.79862        -1.48055
C         -8.94005         5.20309         0.93582
C         -7.76072         5.89824         0.26006
C         -6.44066         5.23885         0.77889
C         -5.13550         5.94150         0.50775
C         -3.80693         5.20820         0.64933
C         -2.59636         5.74780        -0.07228
C         -1.32510         4.97124         0.03644
C         -0.06927         5.69040        -0.33412
C          1.21363         4.98639        -0.10771
C          2.52063         5.74122        -0.24522
C          3.53785         4.96085        -1.05153
C          4.78555         5.66781        -1.48490
C          6.07578         4.90269        -1.62213
C          7.35244         5.64027        -1.34807
C          8.57511         4.90909        -1.50031
C         -7.65794         7.40100         0.54148
C         -6.49352         8.04357         0.24040
C         -5.45549         7.14386        -0.37375
C         -3.50118         8.12338         0.52551
C         -2.56110         7.23369        -0.28319
C         -1.30009         7.97461        -0.62509
C         -0.03503         7.17210        -0.61128
C          1.23984         7.93016        -0.54139
C          2.43948         7.19560        -0.66066
C          3.63942         7.87240        -0.90473
C          4.90280         7.18296        -1.37819
C          6.10116         7.68417        -0.56200
C          7.35904         6.96615        -0.97635
C         -6.24326         9.47615         0.34207
C         -5.04829        10.12233         0.19595
C         -3.72894         9.51840         0.03300
C         -2.59474        10.18832        -0.32115
C         -1.30174         9.46839        -0.57671
C          0.01685        10.17642        -0.30925
C          1.26330         9.34110        -0.54113
C          2.50357        10.00017        -0.61519
C          3.69185         9.28151        -0.82501
C          5.01510         9.91480        -0.84665
C          6.14675         9.19448        -0.70513
C        -10.58052        -0.34313        -1.52693
C        -10.07899        -1.28816        -0.44451
C         -8.87763        -0.62330         0.26034
C         -7.57079        -1.38107         0.45329
C         -6.25237        -0.67368         0.11569
C         -4.91906        -1.37428         0.50968
C         -3.74188        -0.65394         1.12081
C         -2.59813        -1.40335         1.84081
C         -1.23089        -0.66514         1.69216
C          0.05264        -1.42772         1.48499
C          1.26609        -0.69718         0.94675
C          2.50330        -1.47990         0.60985
C          3.87203        -0.77404         0.71925
C          4.98575        -1.59397         0.06320
C          6.08742        -0.92835        -0.62850
C          7.45446        -1.65137        -0.69633
C          8.68568        -0.85725        -0.81077
C          9.91576        -1.46293        -0.62796
C         11.13696        -0.69467        -0.82348
C         -9.77615        -2.68034        -1.03820
C         -8.73500        -3.55238        -0.34803
C         -7.57546        -2.85991         0.28009
C         -6.27396        -3.59769         0.34928
C         -4.91217        -2.89430         0.27141
C         -3.83606        -3.67679         1.02628
C         -2.59991        -2.95719         1.51402
C         -1.27349        -3.71739         1.54796
C          0.03124        -2.95843         1.49828
C          1.35400        -3.69995         1.28426
C          2.50289        -3.01259         0.52636
C          3.86735        -3.64943         0.85623
C          5.08337        -2.95398         0.32505
C          6.33834        -3.65722         0.22360
C          7.52077        -2.99420        -0.11745
C          8.83373        -3.56647         0.08728
C          9.96721        -2.83841        -0.19650
C         -8.67994        -4.85986        -0.71744
C         -7.35718        -5.55375        -1.00746
C         -6.22773        -5.01067        -0.10678
C         -4.87480        -5.62524        -0.30825
C         -3.83195        -5.22157         0.75088
C         -2.42241        -5.70429         0.40113
C         -1.29909        -5.26754         1.34175
C          0.06401        -5.92410         0.94617
C          1.36207        -5.19756         1.20060
C          2.64952        -6.02349         0.95059
C          3.91322        -5.13310         1.04728
C          5.21035        -5.85551         0.78473
C          6.49373        -5.01640         0.91312
C          7.70872        -5.75877         0.36198
C          8.97039        -4.97532         0.64089
C         -7.22303        -7.05206        -0.93160
C         -6.06375        -7.67954        -1.61041
C         -4.78828        -6.95216        -0.96882
C         -3.62386        -7.85803        -0.45095
C         -2.35264        -6.95623        -0.39615
C         -1.08835        -7.73117        -0.67907
C          0.12656        -7.09211        -0.00800
C          1.38459        -7.60429        -0.78741
C          2.67059        -6.75908        -0.39677
C          3.91617        -7.61946        -0.57627
C          5.21188        -7.08033        -0.06470
C          6.45355        -7.66598        -0.70878
C          7.70673        -6.96759        -0.22468
C         -5.91254        -9.18241        -1.57759
C         -4.71589        -9.81247        -1.58428
C         -3.45700        -9.17143        -1.20427
C         -2.28319        -9.85196        -1.08944
C         -1.15596        -9.22181        -0.28098
C          0.21850        -9.83994        -0.41003
C          1.41166        -9.12940        -0.47983
C          2.64687        -9.80464        -0.36501
C          3.91237        -9.16728        -0.62882
C          5.22251        -9.82632        -0.38052
C          6.39467        -9.16462        -0.44161
O          3.10379         5.76816         1.09632
O         -7.51688         3.10816        -0.97512
O          5.13928         7.63977        -2.73274
H          4.49963         7.16810        -3.31111
O          6.97788         0.93066         0.62297
O         -1.87964         1.53412         2.67696
O          6.37824        -7.43235        -2.13410
H          7.00887        -8.03074        -2.58366
O          9.01601         0.80589        -2.58880
O          2.80670        -5.74296        -1.38911
H          2.38696        -6.13203        -2.20766
O         -1.37252         8.76817        -1.86030
O         -2.19658        -5.64445        -1.03740
O          3.94194        -8.28285        -1.82353
O          0.14597        -7.31081         1.40728
O         -2.89528         2.44051        -0.74258
H         -2.93319         3.20933        -1.35087
O          1.56684        -4.51393         2.47261
O          3.12033         2.56939         1.42510
O         -0.06548         6.20524        -1.72052
O         -5.38813         1.45829        -0.54545
O         -1.50872        -9.37080         1.10609
H         -2.44659        -9.02658         1.23198
O         -3.77213         7.83764         1.68062
O         -3.62135        -3.48696         2.42937
O          2.24553        -3.34129        -0.85674
H          2.06358        -2.51730        -1.36162
O          6.06083         3.36626         1.11716
H          6.08388         2.54253         1.67125
O         -4.52387        -3.04956        -1.11976
H         -5.01814        -2.37617        -1.64444
O          6.68513        -4.76345         2.26539
O          7.40195         3.40683         0.56776
O         -6.45462        -4.71939         1.28072
O         -5.95652         3.38563         2.34321
O         -5.18425         7.23018        -1.55989
O         -5.80907         6.03771         1.79485
O         -3.80509        -0.81319        -0.30319
O         -3.48599         4.80784         2.01569
O          3.70925         2.79490        -2.12176
O          5.27810        -7.15761         1.40290
O          3.82063         0.45559        -1.36357
O          0.00735        10.61509         1.09260
O         -4.26794        -5.86740         1.93989
H         -3.54195        -5.83106         2.60542
O         -9.28792        -0.06678         1.55157
O         -2.88897        -1.30617         3.23936
H         -2.11140        -1.66525         3.72466
O          3.99272        -4.22955         2.18445
O        -11.13650        -1.44846         0.53090
H        -10.72122        -1.59213         1.40987
O         -4.45672        -5.78324        -1.70156
O          1.61537        -0.92791        -0.43728
O         -7.72090        -2.21811         1.62095
O          3.72008         5.34063        -2.43614
O         -9.22192        -2.45890        -2.34627
H         -8.79401        -3.28646        -2.65767
O          1.23910        -7.43277        -2.13960
O         -4.31228         0.87202         2.90622
H         -3.56452         0.56139         3.47051
O         -0.55851        -3.40234         2.76677
O         -0.97102        -7.72697        -2.09871
H         -0.96511        -6.79659        -2.41413
O          6.54939        -1.51672        -1.85771
O          6.18710         3.98279        -2.75888
O         -3.89060        -8.21161         0.84782
O         -2.96079         6.32868        -1.35410
H          2.50034         6.25377         1.69713
O         -7.89041         5.71755        -1.15363
H         -7.17929         6.20510        -1.62112
O         -0.33118        -0.95857         2.80547
O         -6.03389        -7.33842        -3.01503
H         -5.17526        -7.62546        -3.39011
O         -1.64610        -5.80167         2.62830
H         -1.04652        -5.38743         3.28949
O          5.89663         7.39788         0.84796
H          5.95231         6.42938         0.99248
O         -7.09757        -5.03139        -2.32742
H         -6.54358        -5.68373        -2.82918
O         10.13970        -5.60597         0.12922
H         10.10224        -5.58496        -0.84867
O         -6.26592        -0.77217        -1.33717
H         -5.63814        -0.08200        -1.66428
O          0.19681         2.72687         2.17330
O         -7.60906         1.65342         2.26988
H         -8.14591         0.90763         2.62765
O        -11.27173         1.34585         0.89663
H        -11.42810         0.36829         0.89410
O         -0.19751         9.38511         1.87399
H         -0.24183         9.74586         2.79309
O          1.76311         0.73477         2.74110
H          1.74631         1.65909         3.07682
O          2.71263        -7.00927         1.97970
H          2.76069        -6.54172         2.84133
O          4.20077        -0.58839         2.10232
H          4.39091        -1.45714         2.51636
H         12.09344        -1.19826        -0.62038
H         12.07801         1.16474        -1.28302
H         10.74117         3.35554        -1.69644
H          9.51606         5.46595        -1.62655
H          8.32748         7.45749        -0.78940
H          7.12422         9.69744        -0.65235
H          5.06072        11.01269        -0.90974
H          2.53712        11.09656        -0.53160
H          0.07626        11.12795        -0.89210
H         -2.63094        11.26440        -0.55849
H         -5.06854        11.22440         0.20646
H         -7.13242        10.10199         0.52266
H         -8.52927         7.95036         0.93203
H         -9.24419         5.58993         1.92468
H        -11.05710         3.52168        -0.71506
H        -10.98276         1.63588        -2.15687
H        -10.92844        -0.78361        -2.47259
H        -10.74662        -3.24530        -1.12976
H         -9.54477        -5.26716        -1.26983
H         -7.50341        -7.49790         0.03862
H         -6.82318        -9.76446        -1.78473
H         -4.69102       -10.90192        -1.74809
H         -2.19707       -10.89109        -1.44542
H          0.27376       -10.94077        -0.35394
H          2.65820       -10.82019         0.06487
H          5.20779       -10.90493        -0.15931
H          7.33631        -9.71101        -0.27747
H          8.66988        -7.40736        -0.53678
H          9.08197        -4.90400         1.75595
H         10.95166        -3.30553        -0.04500
