         640
 CSIRO Nanostructure Databank - Neutral Graphene Oxide Data Set
C         23.25416        27.36905         1.68885
C         23.23348        28.75894         1.61633
C         23.07245        31.60296         0.80577
C         23.03914        32.92880         0.47253
C         22.96901        35.90971         0.68155
C         22.98035        37.25315         0.83316
C         22.93063        40.19341         0.60824
C         22.91664        41.55616         0.51717
C         22.91040        44.46801         0.13206
C         22.92868        45.81644        -0.11881
C         25.67404        24.54198         1.58634
C         24.51656        25.23819         1.67416
C         25.59221        27.37782         1.01235
C         24.44039        26.66188         1.40504
C         25.58403        28.80012         0.95705
C         24.37647        29.48573         1.25895
C         25.55233        31.66440         0.74430
C         24.34184        30.99137         1.33640
C         25.48353        33.06408         0.50549
C         24.22217        33.72247         0.45634
C         25.43703        35.92664         0.32366
C         24.14501        35.18241         0.08134
C         25.42009        37.33013         0.45501
C         24.17742        38.04283         0.61259
C         25.39322        40.20113         0.58102
C         24.16155        39.45381         0.61688
C         25.38409        41.61676         0.57248
C         24.12771        42.33075         0.50345
C         25.35225        44.52709         0.71786
C         24.10781        43.73261         0.39433
C         25.38293        45.90417         0.10186
C         24.16929        46.55149        -0.18986
C         25.37017        48.61417        -0.64738
C         24.18323        47.91274        -0.58990
C         28.35158        23.23347         1.74136
C         28.23267        24.57729         1.25726
C         26.88900        25.14719         1.00934
C         28.08832        27.39716         0.60990
C         26.82779        26.64925         0.69608
C         28.03054        28.81530         0.45054
C         26.78694        29.51487         0.60987
C         27.91818        31.66541         0.10284
C         26.75363        30.95383         0.49332
C         27.91992        33.08437         0.07336
C         26.69338        33.79009         0.25103
C         27.89799        35.93982         0.20022
C         26.66927        35.22437         0.23889
C         27.88484        37.35904         0.31155
C         26.65264        38.06199         0.45197
C         27.86645        40.19971         0.52500
C         26.63887        39.48499         0.54084
C         27.86404        41.64484         0.55215
C         26.62476        42.34996         0.55230
C         27.84802        44.48537         0.46910
C         26.63976        43.77134         0.53285
C         27.85939        45.93224         0.26337
C         26.61099        46.60712         0.00148
C         27.85506        48.72218        -0.34360
C         26.60840        47.98875        -0.34433
C         27.88602        50.11951        -0.58345
C         30.75327        23.22855         1.31614
C         29.56171        22.57316         1.72022
C         30.73412        24.73257         1.29792
C         29.37738        25.31270         0.95937
C         30.53033        27.43461         0.33971
C         29.32018        26.71354         0.60873
C         30.46359        28.82535         0.04766
C         29.22342        29.50761         0.12141
C         30.41281        31.67945        -0.29561
C         29.12108        30.91525        -0.39846
C         30.38878        33.09741        -0.29803
C         29.14003        33.81110        -0.12834
C         30.34312        35.96340        -0.09626
C         29.13772        35.23438        -0.01576
C         30.36926        37.36971         0.11958
C         29.11155        38.09230         0.27909
C         30.35739        40.26146         0.20944
C         29.08479        39.48552         0.40713
C         30.35121        41.62900         0.90288
C         29.07675        42.37075         0.58991
C         30.35109        44.47881         0.47328
C         29.08870        43.77202         0.53969
C         30.33634        45.97398         0.68402
C         29.06109        46.64443         0.22012
C         30.31678        48.78916        -0.05220
C         29.07506        48.04873        -0.05507
C         30.30587        50.20037        -0.28126
C         29.06789        50.83408        -0.53867
C         33.14510        20.40237         0.92664
C         32.02568        21.11497         1.25938
C         33.10492        23.20700         0.51974
C         31.94840        22.52695         1.04834
C         33.05860        24.63020         0.27406
C         31.87105        25.36073         0.53529
C         32.95219        27.43382        -0.22242
C         31.78767        26.73505         0.22745
C         32.90458        28.85233        -0.42413
C         31.67287        29.54584        -0.28892
C         32.85671        31.68492        -0.65923
C         31.63588        30.97283        -0.41610
C         32.83545        33.12948        -0.63126
C         31.60469        33.80658        -0.43170
C         32.87678        35.92719        -0.09374
C         31.59883        35.30047        -0.58112
C         32.87411        37.29102         0.52702
C         31.59096        38.03759         0.26299
C         32.88311        40.22098         0.60540
C         31.58723        39.46255         0.57998
C         32.82455        41.68801         0.40560
C         31.61435        42.36897         0.50773
C         32.77455        44.49159        -0.17001
C         31.54706        43.79088         0.35132
C         32.76296        45.98029         0.04154
C         31.59630        46.67224         0.22539
C         32.79677        48.84052         0.06988
C         31.55882        48.11277         0.09140
C         32.78109        50.28910        -0.03808
C         31.54680        50.95326        -0.27944
C         32.77719        53.03620        -0.63989
C         31.58179        52.34212        -0.55330
C         35.45798        18.86578        -0.00354
C         35.39023        20.27085        -0.10531
C         34.27859        21.03877         0.33965
C         35.43302        23.15651        -0.30919
C         34.26068        22.46657         0.17808
C         35.41091        24.56984        -0.50422
C         34.20117        25.30200        -0.25650
C         35.32392        27.42899        -0.89009
C         34.16191        26.72230        -0.45865
C         35.32387        28.82669        -0.99342
C         34.10477        29.56061        -0.76392
C         35.24259        31.71588        -1.36277
C         34.05270        30.97457        -0.90335
C         35.27586        33.22622        -1.14641
C         34.04458        33.87477        -0.69159
C         35.33922        35.97690        -0.27930
C         34.06920        35.26353        -0.32960
C         35.33829        37.38336        -0.07434
C         34.12221        38.09082         0.19953
C         35.33327        40.23391         0.15057
C         34.12653        39.48151         0.29777
C         35.31117        41.67203         0.18852
C         34.07759        42.38713         0.22101
C         35.29115        44.51322         0.16753
C         34.08119        43.80163         0.16308
C         35.25487        46.00437         0.41417
C         34.05750        46.68477        -0.28013
C         35.26676        48.82639         0.35137
C         34.00725        48.14337         0.07224
C         35.25865        50.35349         0.27352
C         33.99515        51.02254        -0.07037
C         35.29132        53.11322        -0.48084
C         34.01659        52.39429        -0.41263
C         35.35201        54.43461        -0.95799
C         37.87135        18.78654        -0.47259
C         36.64209        18.15644        -0.18593
C         37.83986        20.18949        -0.90002
C         36.52280        20.96973        -0.72080
C         37.80629        23.09116        -0.99519
C         36.59843        22.43204        -0.64978
C         37.79272        24.52213        -1.11725
C         36.59210        25.22893        -0.95137
C         37.82420        27.40484        -1.31274
C         36.51086        26.66202        -1.41678
C         37.77794        28.85127        -1.38319
C         36.56947        29.52075        -1.30205
C         37.83280        31.78943        -1.37140
C         36.54631        30.99053        -1.50772
C         37.78525        33.22147        -1.00743
C         36.57141        33.90652        -0.91172
C         37.79986        36.00451        -0.51118
C         36.55645        35.29217        -0.54444
C         37.79273        37.42434        -0.33272
C         36.56886        38.11333        -0.14779
C         37.78483        40.26998        -0.02613
C         36.55656        39.54050        -0.01245
C         37.77583        41.68801         0.04810
C         36.53687        42.39699         0.10679
C         37.77158        44.54770        -0.05924
C         36.52966        43.82668         0.11657
C         37.75023        45.99922        -0.15358
C         36.54813        46.71566         0.07509
C         37.74594        48.86318        -0.03195
C         36.54383        48.11615         0.11976
C         37.73966        50.30568        -0.00468
C         36.53837        51.04738         0.02992
C         37.77494        53.25938         0.01963
C         36.51404        52.44469        -0.17904
C         37.78611        54.56251        -0.74533
C         36.57910        55.10000        -1.15890
C         40.40278        16.06719        -0.06128
C         39.20664        16.73410        -0.07428
C         40.34170        18.85211        -0.66458
C         39.13000        18.12533        -0.39739
C         40.32228        20.25266        -0.92176
C         39.08439        20.96916        -0.97867
C         40.26846        23.08434        -1.62236
C         39.02988        22.35880        -1.15161
C         40.26208        24.56749        -1.34470
C         39.04785        25.24461        -1.31327
C         40.30496        27.42616        -1.62280
C         39.00987        26.69151        -1.36014
C         40.20371        28.80760        -0.92196
C         39.08492        29.61064        -1.59104
C         40.27538        31.71880        -0.90974
C         39.08697        31.05415        -1.13333
C         40.29459        33.17274        -0.79226
C         39.03232        33.90011        -0.80347
C         40.30712        36.05855        -0.87127
C         39.02319        35.29825        -0.65574
C         40.27089        37.47381        -0.36686
C         39.03841        38.15077        -0.27437
C         40.24959        40.27872         0.01093
C         39.02148        39.56592        -0.09877
C         40.24702        41.71304         0.01432
C         39.01113        42.41037        -0.00668
C         40.22086        44.50661        -0.56799
C         38.97651        43.83460        -0.13341
C         40.17152        46.00154        -0.80488
C         38.94107        46.73878        -0.41665
C         40.18333        48.91686        -0.52644
C         38.93752        48.14190        -0.33066
C         40.20357        50.32819        -0.14605
C         38.99173        51.04384        -0.11710
C         40.28094        53.08909        -0.71137
C         39.01982        52.44659        -0.18553
C         40.26488        54.59674        -0.64262
C         39.04115        55.28284        -0.85082
C         40.27857        57.37638        -1.05336
C         39.07878        56.68447        -1.06410
C         42.85221        16.05833        -0.35793
C         41.62065        16.75251        -0.35463
C         42.81777        18.83300        -0.90066
C         41.59461        18.14912        -0.63761
C         42.79605        20.26421        -1.07715
C         41.55907        20.97831        -1.07810
C         42.77721        23.10317        -1.27642
C         41.55540        22.38058        -1.26128
C         42.77824        24.53532        -1.24636
C         41.53432        25.27371        -1.27608
C         42.81878        27.46108        -1.31545
C         41.55023        26.66301        -1.27851
C         42.68408        28.71889        -0.37503
C         41.50084        29.55234        -0.77254
C         42.73802        31.64490        -0.46520
C         41.52960        30.95160        -0.74770
C         42.81673        33.12792        -0.72921
C         41.50231        33.86579        -0.60825
C         42.72411        35.98026        -0.16090
C         41.54331        35.28839        -0.48367
C         42.72844        37.41155         0.01125
C         41.48240        38.16239        -0.11497
C         42.67438        40.29037         0.60854
C         41.46406        39.55460         0.09804
C         42.72003        41.73277         0.17145
C         41.50430        42.42342        -0.02977
C         42.73793        44.51152        -0.36127
C         41.52231        43.82423        -0.32698
C         42.76526        45.96266        -0.68087
C         41.48994        46.72447        -0.89028
C         42.73838        48.89874        -0.29035
C         41.49249        48.22076        -0.73222
C         42.74357        50.23837         0.05819
C         41.46608        51.01083         0.29644
C         42.70999        53.14373        -0.02103
C         41.54795        52.45629        -0.16146
C         42.69572        54.63220        -0.07274
C         41.46803        55.31144        -0.54445
C         42.74995        57.42580        -0.77011
C         41.49013        56.71315        -0.75877
C         44.03062        16.71832        -0.65315
C         45.28162        18.78058        -1.28549
C         44.04298        18.10484        -0.93533
C         45.21908        20.21569        -1.60102
C         43.99810        20.97431        -1.29740
C         45.27918        23.09792        -1.26235
C         44.01953        22.38572        -1.31149
C         45.25262        24.51289        -1.00731
C         44.01671        25.23661        -1.07513
C         45.20676        27.32358        -0.56030
C         44.03121        26.65165        -0.94627
C         45.18567        28.76781        -0.27197
C         43.97556        29.48035        -0.29987
C         45.13012        31.61455         0.13222
C         43.95920        30.92743        -0.21009
C         45.07999        33.05075         0.57086
C         43.94649        33.83266        -0.02729
C         45.15168        35.88721         0.50310
C         43.94552        35.21099         0.09660
C         45.10567        37.33478         0.72475
C         43.90103        38.10551         0.36695
C         45.17922        40.24312         0.46473
C         43.96204        39.53324         0.42902
C         45.19894        41.68904         0.28982
C         43.95611        42.40843         0.12093
C         45.22017        44.51372        -0.12212
C         43.97874        43.82380        -0.11980
C         45.25249        45.97520        -0.33879
C         43.97841        46.73771        -0.33275
C         45.16463        48.83469         0.21839
C         43.95015        48.10634        -0.21200
C         45.17625        50.30721         0.15555
C         43.98630        50.97342         0.23550
C         45.27461        53.17940         0.36171
C         43.93090        52.45001         0.59341
C         45.29535        54.69915         0.09559
C         43.97767        55.43294         0.01313
C         43.93078        56.82396        -0.48387
C         47.73255        18.85931        -1.50468
C         46.50653        18.14589        -1.33775
C         47.78964        20.22564        -1.57670
C         46.54176        20.99187        -1.71752
C         47.75183        23.08889        -1.08329
C         46.51116        22.42206        -1.36629
C         47.71685        24.47537        -0.71490
C         46.46073        25.20030        -0.71058
C         47.63136        27.30755        -0.03548
C         46.40689        26.59251        -0.42435
C         47.64192        28.79056        -0.04911
C         46.40029        29.45341        -0.00187
C         47.65082        31.62687         0.35564
C         46.35906        30.85600         0.53396
C         47.63423        33.05469         0.50791
C         46.40814        33.77119         0.51206
C         47.63753        35.91897         0.70445
C         46.38563        35.19222         0.59981
C         47.66560        37.32723         0.73054
C         46.41584        38.09357         0.85478
C         47.64992        40.21303         0.55173
C         46.42857        39.54289         0.58080
C         47.67164        41.65716         0.40505
C         46.42030        42.37958         0.23176
C         47.68787        44.52653         0.18711
C         46.45085        43.82309         0.08071
C         47.76935        45.94901         0.23612
C         46.54024        46.70456        -0.09440
C         47.72142        48.89629         0.39785
C         46.46076        48.12749         0.34997
C         47.73765        50.26370         0.19951
C         46.46572        50.96375        -0.25177
C         47.68054        53.10833        -0.27877
C         46.49298        52.44491        -0.00935
C         47.64995        54.52040        -0.57919
C         46.49446        55.23874        -0.54904
C         50.30025        20.25987        -1.23394
C         49.08067        21.00171        -1.70894
C         50.20139        23.06210        -0.78268
C         48.99196        22.39930        -1.12585
C         50.17723        24.46465        -0.51179
C         48.93388        25.13579        -0.46053
C         50.16251        27.32169        -0.33094
C         48.91737        26.55362        -0.05489
C         50.11852        28.81097        -0.33426
C         48.85118        29.50890        -0.00119
C         50.12864        31.63146         0.30820
C         48.85851        30.93121         0.19148
C         50.11265        33.04369         0.57935
C         48.87809        33.75938         0.62673
C         50.08812        35.90778         0.88808
C         48.87830        35.19948         0.74750
C         50.12489        37.33030         0.83148
C         48.88981        38.04136         0.70435
C         50.12589        40.14920         0.68122
C         48.89745        39.47323         0.65183
C         50.11971        41.61505         0.76982
C         48.87248        42.33603         0.48017
C         50.21320        44.49210         0.54183
C         48.97494        43.77429         0.06393
C         50.20656        45.94287         0.93703
C         48.94166        46.65012         0.50956
C         50.26343        48.85900         0.67531
C         48.94633        48.11940         0.66644
C         50.28486        50.38907         0.53196
C         48.95815        50.99739         0.10067
C         50.15392        52.93100        -0.75670
C         48.93966        52.34635        -0.32626
C         51.40652        20.90740        -0.80619
C         52.63562        23.02312        -0.28584
C         51.44037        22.34449        -0.64708
C         52.63240        24.44895        -0.10832
C         51.41418        25.16560        -0.25493
C         52.59898        27.26690         0.20000
C         51.43274        26.58036        -0.14379
C         52.51557        28.72141         0.46547
C         51.45413        29.54443        -0.26208
C         52.58451        31.62103         0.53938
C         51.35206        30.94887         0.28038
C         52.57394        33.04225         0.70013
C         51.34935        33.72539         0.73294
C         52.57161        35.90962         0.63074
C         51.36032        35.15928         1.19657
C         52.63782        37.32844         1.18570
C         51.35519        38.05719         0.88011
C         52.64075        40.17432         0.65458
C         51.37282        39.45560         0.76398
C         52.67328        41.57877         0.50910
C         51.42866        42.34830         0.70349
C         52.65318        44.51160         0.35762
C         51.41674        43.81743         0.49637
C         52.67641        45.92089         0.29100
C         51.47134        46.67971         0.50691
C         52.69607        48.75586         0.01032
C         51.49318        48.06576         0.38468
C         52.67674        50.15564        -0.29352
C         51.45043        50.90540        -0.27778
C         51.34305        52.19101        -0.81289
C         55.03225        23.00994         0.21449
C         53.87777        22.33854        -0.10984
C         55.06076        24.42486         0.38665
C         53.83903        25.14788         0.22297
C         55.03282        27.27891         0.70873
C         53.81971        26.56687         0.40540
C         55.04640        28.69350         0.84437
C         53.78232        29.44564         0.81993
C         55.04211        31.58484         0.84060
C         53.81089        30.91186         0.67947
C         55.05952        33.02247         0.85912
C         53.83750        33.74745         0.81750
C         55.08054        35.86241         0.81260
C         53.86393        35.15756         0.82414
C         55.08838        37.31362         0.69420
C         53.88912        38.03806         0.72664
C         55.10457        40.14173         0.34370
C         53.87991        39.45225         0.57200
C         55.10672        41.57257         0.18457
C         53.87668        42.27277         0.27162
C         55.14745        44.45156         0.02568
C         53.83976        43.72669        -0.13724
C         55.14415        45.86312        -0.03283
C         53.91340        46.60280         0.04317
C         55.15230        48.70973        -0.33686
C         53.92156        48.02131        -0.09124
C         55.10317        50.09863        -0.60593
C         53.90523        50.78593        -0.62419
C         57.51773        24.44322         0.85341
C         56.27623        25.12950         0.68878
C         57.48157        27.26441         1.03080
C         56.26180        26.55152         0.81169
C         57.49536        28.69289         1.07663
C         56.25980        29.41485         0.96390
C         57.50622        31.55691         1.08258
C         56.26490        30.85111         0.97910
C         57.52736        32.99025         1.02305
C         56.29657        33.72251         0.92122
C         57.55716        35.85464         0.81993
C         56.30962        35.14571         0.86417
C         57.56542        37.27608         0.63420
C         56.33290        38.00152         0.54850
C         57.57865        40.09298         0.16582
C         56.34048        39.41222         0.34296
C         57.58233        41.51822        -0.33675
C         56.32723        42.28412        -0.01919
C         57.61280        44.41357        -0.10032
C         56.35566        43.70471        -0.03478
C         57.61406        45.83656        -0.16172
C         56.38718        46.57145        -0.15690
C         57.65329        48.65428        -0.40266
C         56.39996        47.98498        -0.30401
C         58.68730        25.12275         1.09543
C         59.91200        27.25939         1.36913
C         58.70370        26.54501         1.16985
C         59.92046        28.63904         1.39599
C         58.72405        29.38990         1.23872
C         59.93844        31.57146         1.30975
C         58.73065        30.83748         1.21996
C         59.95538        32.95080         1.23065
C         58.76049        33.69485         1.07043
C         59.99257        35.86874         0.87485
C         58.77730        35.13895         0.93021
C         60.00389        37.23673         0.69049
C         58.80069        37.97499         0.55150
C         60.02214        40.13992         0.23745
C         58.79959        39.40140         0.30251
C         60.03301        41.52408         0.13767
C         58.85233        42.27174        -0.02538
C         60.07061        44.44537        -0.08899
C         58.85140        43.70067        -0.07207
C         60.07324        45.81696        -0.18354
C         58.85205        46.54422        -0.23383
C         58.84198        47.95880        -0.34987
O         26.69500        25.62818        -0.35771
O         45.77197        20.60750        -2.90063
O         36.92935        20.43485        -2.02242
O         50.03220        28.05152        -1.61519
O         50.80422        42.06522         2.01793
O         48.26442        26.80190         1.22664
O         52.77195        29.04239         1.85712
O         45.54618        54.15280         1.42378
O         45.62958        48.32479         1.55738
O         37.26588        31.44512        -2.70317
O         40.01553        45.07512        -1.91784
O         45.63524        37.73385         2.05160
O         32.24407        39.76613         1.88567
O         40.82706        48.83247        -1.88727
O         43.16386        55.20904         1.21078
O         42.28072        46.29855        -2.03831
O         35.03714        32.62673        -2.48182
O         46.11264        46.44218        -1.46964
O         35.23272        49.65670         1.56327
O         49.63129        48.50516         1.95281
O         40.20944        23.00870        -3.10594
H         40.12501        22.06022        -3.34482
O         30.46424        40.53309        -1.21787
H         30.31869        39.69368        -1.70312
O         51.96134        29.70515        -1.61671
H         51.44326        29.08542        -2.18663
O         43.69610        52.46846         2.03096
H         43.87205        53.39870         2.31899
O         32.91098        37.07648         1.98676
H         32.78420        37.96950         2.39199
O         30.97548        25.13413         2.71312
H         30.28920        24.68731         3.25412
O         52.37806        36.04891        -0.79975
H         52.37694        35.15258        -1.19713
O         42.42356        28.14225         0.95892
H         42.72316        28.79274         1.62996
O         39.32423        29.72788        -3.01335
H         38.59183        30.28840        -3.36997
O         23.92884        35.20584        -1.38197
H         23.91141        36.14787        -1.65512
O         52.76245        37.26569         2.63214
H         52.71028        38.18038         2.97945
O         43.04437        27.97762        -2.65221
H         42.15708        28.11844        -3.07253
O         50.53239        50.90794         1.88048
H         49.99405        50.35380         2.49231
O         41.33031        51.07852         1.75970
H         42.12915        51.56525         2.10135
O         46.45690        50.80206        -1.72434
H         47.31751        51.13418        -2.06015
O         25.26149        44.77077         2.18027
H         24.43315        45.27375         2.33455
O         50.22251        45.91573         2.40760
H         50.09059        46.85111         2.70004
O         28.88416        30.76585        -1.86066
H         29.64089        30.25860        -2.22585
O         53.63963        43.67866        -1.61266
H         54.42502        43.22626        -1.99148
O         57.58432        41.38920        -1.83038
H         58.39101        40.88287        -2.06840
O         30.33761        46.13816         2.14771
H         29.55723        45.65866         2.49979
O         51.48495        35.08921         2.64324
H         50.71108        34.59671         2.98699
O         37.76701        53.65804         1.45588
H         37.70722        52.83425         1.98640
O         30.31709        41.47620         2.34168
H         31.11241        40.94948         2.60352
O         24.36820        31.30198         2.78952
H         24.34572        32.27947         2.87218
O         49.26384        21.19387        -3.15874
H         50.07480        21.73134        -3.28173
O         39.75331        28.53877         0.43725
H         40.53899        28.19556         0.93243
O         34.30368        46.56670        -1.72463
H         33.63732        47.11798        -2.18767
O         43.16380        33.21088        -2.17030
H         42.36766        32.94578        -2.67983
O         46.23365        30.68024         2.00978
H         45.79871        31.49989         2.35820
O         35.01958        46.17878         1.83731
H         35.78495        45.81265         2.32668
O         31.60349        35.55838        -2.05413
H         32.31250        34.99959        -2.44186
O         40.28988        52.77276        -2.15320
H         41.06750        53.21437        -2.55511
O         49.21990        43.68787        -1.41270
H         48.34483        43.62741        -1.85452
O         40.41329        27.59484        -3.07522
H         40.41244        26.69649        -3.46961
O         32.67730        44.33371        -1.63719
H         33.43094        44.84675        -2.01902
O         40.40901        36.18941        -2.34765
H         39.60990        36.66985        -2.65333
O         44.75950        32.98497         2.04764
H         44.82641        33.90394         2.39051
O         42.48773        40.35406         2.07847
H         42.66603        39.45772         2.43611
O         36.25206        26.56923        -2.87122
H         37.01362        26.10015        -3.27505
H         22.35674        26.81836         2.00468
H         22.31106        29.29209         1.88440
H         22.14687        31.01086         0.78362
H         22.08568        33.38681         0.17139
H         22.04615        35.34862         0.88908
H         22.07236        37.75806         1.19356
H         21.97461        39.65301         0.63236
H         21.94652        42.07010         0.48851
H         21.94971        43.93800         0.06858
H         21.99235        46.34667        -0.34439
H         25.70073        23.49774         1.92775
H         23.61350        24.74807         2.06783
H         25.34220        49.67269        -0.93725
H         23.23395        48.41033        -0.83484
H         27.44944        22.67369         2.01905
H         26.95614        50.66334        -0.79424
H         29.56701        21.49930         1.94999
H         29.02793        51.91655        -0.71640
H         33.15670        19.31926         1.10361
H         31.17516        20.57917         1.69929
H         32.74345        54.10913        -0.87080
H         30.64913        52.89470        -0.72684
H         34.57177        18.29918         0.31231
H         34.43411        54.94979        -1.27042
H         36.61582        17.07410        -0.00190
H         36.55663        56.07356        -1.66998
H         40.43894        14.99335         0.17158
H         38.28684        16.17853         0.14980
H         40.29014        58.46106        -1.23305
H         38.14372        57.23739        -1.22736
H         42.86239        14.98183        -0.13526
H         42.73691        58.48274        -1.07525
H         44.96821        16.14734        -0.66714
H         44.86766        57.39188        -0.56955
H         48.65561        18.26400        -1.48907
H         46.57849        17.06237        -1.17335
H         48.55465        54.99670        -0.98062
H         46.47168        56.25267        -0.97193
H         50.34135        19.16941        -1.36207
H         50.16467        53.95602        -1.14970
H         52.29865        20.31854        -0.55204
H         52.20697        52.65130        -1.31298
H         55.95504        22.42702         0.33354
H         53.92692        21.24938        -0.23839
H         56.02630        50.65122        -0.82464
H         53.92184        51.86098        -0.84662
H         57.55008        23.34786         0.78656
H         57.68515        49.74760        -0.49845
H         59.63120        24.57195         1.21694
H         60.85114        26.70024         1.48899
H         60.87845        29.15480         1.54271
H         60.89498        31.04606         1.42833
H         60.92298        33.46557         1.29411
H         60.95426        35.34654         0.96402
H         60.97445        37.74765         0.64376
H         60.98215        39.62201         0.35698
H         61.00117        42.03631         0.22517
H         61.03300        43.91744        -0.06140
H         61.02462        46.36674        -0.22460
H         59.79914        48.49716        -0.40462
