         486
 CSIRO Nanostructure Databank - Neutral Graphene Oxide Data Set
C          8.17933        19.06578        -0.21286
C          8.19241        20.42985        -0.15223
C          7.04061        21.30071         0.01390
C          8.36384        23.41031        -0.13926
C          7.12644        22.66846         0.00303
C          8.44829        24.78652        -0.07785
C         10.68777        14.63420        -0.00057
C         10.61500        16.08656        -0.09267
C          9.46021        16.81577        -0.19957
C         10.68403        19.01885        -0.14025
C          9.43077        18.29218        -0.61110
C         10.69770        20.35566         0.07004
C          9.49353        21.12572        -0.30381
C         10.88790        23.25700         0.01262
C          9.59420        22.60686        -0.33520
C         10.96609        24.69246        -0.45867
C          9.69811        25.50448        -0.21363
C         11.01961        27.61786        -0.41576
C          9.76535        26.87608        -0.32543
C         11.13693        28.94170        -0.71125
C         13.21554        10.33546        -0.31163
C         13.14897        11.70433        -0.29056
C         11.86970        12.42780         0.10829
C         13.15129        14.65403        -0.09299
C         11.87422        13.94320        -0.07641
C         13.17158        16.01700         0.04570
C         11.92832        16.77769        -0.17922
C         13.22630        19.07409        -0.01896
C         11.95360        18.26597        -0.18384
C         13.11024        20.33363         0.83311
C         11.77184        21.07527         0.85907
C         13.13147        23.25461         1.09045
C         11.93678        22.55130         0.50444
C         13.14388        24.75364         1.01808
C         12.20992        25.41912         0.05603
C         13.34627        27.65558         0.67718
C         12.26449        26.90275        -0.02273
C         13.13401        29.15889         0.75015
C         12.50266        29.62326        -0.64065
C         13.25783        31.99179        -1.29473
C         12.38317        31.12051        -0.66166
C         13.34306        33.38625        -0.90744
C         15.71492         7.52265        -0.10054
C         14.53477         8.19473        -0.16897
C         15.67227        10.32398        -0.53384
C         14.48054         9.63506        -0.38358
C         15.67339        11.73494        -0.91188
C         14.33355        12.46972        -0.69840
C         15.69468        14.66184        -0.56844
C         14.43050        13.90149        -0.28280
C         15.57500        16.14241        -0.42285
C         14.46185        16.72359         0.42183
C         15.63442        18.92121         0.32362
C         14.45255        18.24264         0.29370
C         15.68823        20.34880         0.70117
C         14.39948        21.07793         0.97455
C         15.64328        23.23204         1.08423
C         14.44779        22.55437         1.13359
C         15.69518        24.71083         1.27519
C         14.41214        25.50349         1.29467
C         15.63872        27.70669         1.74802
C         14.44028        26.98987         1.12627
C         15.73730        29.13265         1.21219
C         14.42491        29.91145         1.30816
C         15.69875        31.82258        -0.01699
C         14.56759        31.38802         0.88874
C         15.75486        33.27183        -0.38200
C         14.59746        34.01361        -0.68213
C         15.84184        36.15584        -0.59316
C         14.68562        35.47060        -0.75314
C         18.17799         7.54421        -0.00617
C         16.99619         8.21135        -0.08427
C         18.17333        10.35083        -0.71641
C         16.96867         9.72675        -0.02957
C         18.15935        11.83821        -0.88570
C         16.95556        12.49949        -0.94336
C         18.23743        14.65604        -1.21735
C         16.85990        13.97091        -1.34575
C         18.33391        15.98878        -1.48631
C         16.48032        17.01235        -0.92017
C         18.21525        18.90495        -0.24889
C         16.86261        18.23459        -0.15854
C         18.34707        20.33674         0.38011
C         16.99525        21.07385         0.63093
C         18.10486        23.37790         0.19940
C         16.88468        22.57272         0.53785
C         18.18293        24.74701         0.83354
C         16.88330        25.54760         0.79800
C         18.24777        27.63536         1.50975
C         16.94842        26.89534         1.53397
C         18.22841        29.16666         1.56206
C         16.93105        29.74483         0.97292
C         18.29815        31.72325        -0.03674
C         16.97540        31.03339         0.20931
C         18.29997        33.20208        -0.34904
C         17.03050        33.97040        -0.13702
C         18.40483        36.13669        -0.43684
C         17.09693        35.47650        -0.21774
C         20.74146         7.51318        -0.08843
C         19.47535         8.29384         0.15976
C         20.74860        10.30302        -0.75793
C         19.46266         9.59116        -0.64005
C         20.73005        11.73970        -1.25324
C         19.43986        12.52024        -1.03458
C         20.76793        14.64294        -1.33849
C         19.47472        13.89332        -1.17041
C         20.81752        16.16796        -1.42615
C         19.49814        16.88923        -1.43650
C         20.75341        19.14778        -1.01168
C         19.40762        18.36606        -1.07223
C         20.63731        20.52094        -0.38161
C         19.46248        21.18433        -0.19886
C         20.69489        23.45795        -0.06865
C         19.37513        22.71009        -0.37409
C         20.74148        24.82288         0.53482
C         19.48440        25.46255         0.98830
C         20.69632        27.60888         1.17413
C         19.50785        26.93632         1.14082
C         20.70191        29.06185         1.12624
C         19.53293        29.76852         1.06036
C         20.80655        31.96699         0.57095
C         19.57721        31.12785         0.46724
C         20.81654        33.27491         0.17408
C         19.59613        33.96201        -0.31761
C         20.86858        36.11425        -0.52310
C         19.59226        35.45787        -0.35813
C         23.19326         7.48890        -0.21033
C         21.94272         8.18293        -0.27654
C         23.22552        10.31522        -0.54630
C         21.93936         9.63363        -0.54205
C         23.24946        11.80640        -0.86338
C         21.89230        12.45449        -0.51369
C         23.06012        14.68813        -0.08467
C         21.99407        13.92550        -0.86095
C         23.35090        16.07628        -0.71597
C         22.07774        16.89671        -1.04839
C         23.16881        18.99172        -0.37193
C         22.00838        18.33622        -0.64046
C         23.18811        20.43007        -0.02078
C         21.91565        21.19478        -0.08257
C         23.22522        23.26713         0.48328
C         21.96493        22.67577        -0.05571
C         23.22197        24.74135         0.70574
C         21.92377        25.46050         0.74225
C         23.22520        27.60254         0.81378
C         21.99918        26.85435         1.31536
C         23.24627        29.01050         0.87158
C         22.01114        29.76991         1.12274
C         23.37130        31.87189         0.53133
C         22.07462        31.27666         0.95053
C         23.37748        33.32824         0.26217
C         22.07186        34.06521         0.18056
C         23.34047        36.09086        -0.56827
C         22.06997        35.44711        -0.37686
C         25.66996         7.48269        -0.10595
C         24.42940         8.16847        -0.19995
C         25.63489        10.35627         0.00406
C         24.39436         9.62038        -0.33890
C         25.72970        11.81790        -0.40523
C         24.41703        12.57237        -0.24146
C         25.59868        14.64463         0.53950
C         24.37250        13.90648        -0.00351
C         25.66652        16.14559         0.27423
C         24.34358        16.87452         0.15462
C         25.59795        19.04447         0.33408
C         24.51290        18.29010        -0.41690
C         25.64928        20.50513         0.18424
C         24.47923        21.16830        -0.01197
C         25.66050        23.32811        -0.00236
C         24.48518        22.61223         0.09960
C         25.61788        24.75926         0.08481
C         24.46352        25.45872         0.39880
C         25.64500        27.60235         0.43356
C         24.41165        26.90579         0.47351
C         25.64763        28.93121         0.87571
C         24.47616        29.72140         0.82446
C         25.87104        31.81521         0.21606
C         24.54479        31.15187         0.56515
C         25.85669        33.23830        -0.24965
C         24.51777        33.88537        -0.56303
C         25.80345        36.02918        -0.78187
C         24.54765        35.39777        -0.58343
C         28.16196         7.52867        -0.28189
C         26.94162         8.14668        -0.05704
C         28.22147        10.34881         0.39808
C         26.91187         9.60513         0.23189
C         28.25294        11.79329        -0.08082
C         26.93488        12.48981         0.32285
C         28.14380        14.64465         0.60747
C         26.90949        13.98743         0.01707
C         28.11979        16.13301         0.70479
C         26.83664        16.83166         0.42176
C         28.12323        19.09340         0.60646
C         26.85691        18.31099         0.60829
C         28.15278        20.44095         0.46027
C         26.90993        21.28822         0.49904
C         28.30319        23.32237        -0.33146
C         26.93086        22.53681        -0.40053
C         28.11232        24.74456         0.23211
C         26.86719        25.43847        -0.40779
C         28.15033        27.61969        -0.30798
C         26.83745        26.95026        -0.16249
C         28.65441        29.01512         0.04069
C         27.66784        29.98848         0.58660
C         28.12307        31.70858        -1.10697
C         27.00341        30.95534        -0.37303
C         28.19312        33.15991        -1.23632
C         27.04322        33.87829        -0.90085
C         28.25519        35.99428        -1.10752
C         27.00473        35.31716        -0.95480
C         30.73857         7.68284        -0.70340
C         29.38881         8.35840        -0.61161
C         30.84714        10.39332         0.20604
C         29.50910         9.63416         0.21588
C         30.73772        11.88970         0.27482
C         29.51078        12.56385         0.28702
C         30.64659        14.78952         0.36607
C         29.43688        13.95902         0.43862
C         30.65315        16.12759         1.08450
C         29.41254        16.88627         0.62489
C         30.59531        19.00259         1.38214
C         29.42058        18.36778         0.63221
C         30.52401        20.57163         1.32918
C         29.49621        21.13013         0.29252
C         30.56927        23.36219         0.73516
C         29.42328        22.65277         0.45539
C         30.71253        24.78888         0.20042
C         29.40321        25.52006         0.04447
C         30.54480        27.80297        -0.11205
C         29.40373        26.81813        -0.32205
C         30.67504        28.85502        -1.25128
C         29.32581        29.51777        -1.23054
C         30.92356        31.86838        -1.99975
C         29.03214        30.87171        -1.69281
C         30.72039        33.26708        -1.70181
C         29.46457        33.86226        -1.48037
C         30.69458        36.03959        -1.15271
C         29.44203        35.30556        -1.27082
C         31.84959         8.42123        -0.88240
C         33.11018        10.67032        -0.81429
C         31.79199         9.94119        -0.95650
C         33.18582        11.96876        -0.37065
C         32.03662        12.63563         0.36651
C         33.19210        14.71768         0.60395
C         31.92301        14.10758         0.06582
C         33.15116        16.23366         0.67529
C         31.93264        16.91868         0.86272
C         33.11188        19.05616         0.98626
C         31.90881        18.33238         0.99059
C         33.10380        20.51296         1.29318
C         31.83937        21.28628         1.16320
C         33.08428        23.42700         1.41218
C         31.81410        22.65840         1.05393
C         33.09043        24.96189         1.14839
C         31.78297        25.66801         0.84645
C         33.08318        27.75438         0.06848
C         31.80301        27.15783         0.43358
C         33.16266        28.94852        -0.79803
C         31.97903        29.59119        -1.47567
C         33.14547        31.84989        -1.04125
C         32.00082        31.10014        -1.58032
C         33.11794        33.24191        -1.04416
C         32.02487        34.03312        -1.72510
C         31.89977        35.45141        -1.26319
C         34.35913        12.78469        -0.50169
C         35.53704        14.93065        -0.27557
C         34.39872        14.13003        -0.10025
C         35.55742        16.31548         0.04755
C         34.33800        16.98405         0.49149
C         35.58259        19.14413         0.59530
C         34.33437        18.39329         0.68705
C         35.60818        20.51599         0.79481
C         34.38830        21.27377         1.14848
C         35.60899        23.50793         0.86899
C         34.29831        22.74217         0.72252
C         35.63757        24.87710         0.73061
C         34.38350        25.68404         0.89213
C         35.51501        27.53800        -0.50248
C         34.40525        27.18322         0.53370
C         35.59387        29.03851        -0.55094
C         34.41667        29.75253        -0.64223
C         34.32534        31.16216        -0.63564
C         36.71664        17.06480        -0.15955
C         37.96755        19.16280        -0.08862
C         36.78912        18.45716         0.14530
C         38.15367        20.51166         0.42273
C         36.87319        21.24617         0.91405
C         38.19789        23.48503         0.64502
C         36.86391        22.74288         0.99781
C         38.07859        24.86611         0.22934
C         36.86939        25.57765         0.35520
C         36.80977        26.89428        -0.12420
C         39.28623        21.34227        -0.03395
C         39.31600        22.68234         0.10080
O         19.13835        30.97818        -0.95956
O         18.64931         9.59503        -1.86663
O         12.91638        26.05429        -1.06897
O         17.04102        23.19410        -0.79353
O         29.67859        17.62586        -0.60347
O          9.64072        21.83498        -1.59060
O         32.50420        12.75516         1.79378
O         26.19274        32.88990         1.14143
O         13.75191        20.34915         2.11876
O         28.93283         9.78695         1.55050
O         33.82129        25.58761         2.25192
O         26.02545         9.96460         1.35505
O         25.95075        11.85538        -1.81978
O         21.70374        16.69025        -2.45948
O         29.70254        28.55395        -2.27951
O         28.00335        15.29946         1.92244
O         14.21161        30.00932         2.73833
O         25.90252        18.65711         1.72736
O         17.22105        16.63143        -2.02588
O         32.89885        28.78494        -2.28962
O         16.50533        20.58843         1.91514
O         29.92434        21.04522        -1.03619
O         29.84303        28.68203         0.89487
O         29.87577        31.28551        -2.72781
O         37.81160        20.64040         1.84042
O         19.24244        17.93899        -2.44291
O         18.85731        24.71279         2.11414
O         19.01140        33.46737        -1.58944
O         12.63820        24.09672         2.20835
O         21.56431        23.36905        -1.27439
O         17.74197        26.97864         2.73903
O         33.90611        20.89439         2.47320
O         23.25571        23.78561         1.84250
O         37.76440        23.23721         2.01915
O         22.89088        34.06623         1.41545
O         21.79290        14.12764        -2.27538
O         27.25202        27.62124        -1.45401
O         22.10872        30.67685         2.28423
O         12.03772        17.53011        -1.48436
O         16.16738        30.87427        -1.01391
O         14.79607        12.11207        -2.02996
O         31.23295        14.71204        -1.01727
O         15.45596        14.07600         0.77217
O         33.16083        14.10170         1.95812
O         31.50809        26.67832         1.82008
O         26.80507        29.41931         1.51286
O         17.91626        17.94511         0.82653
O         17.03282        34.77984         1.09590
O         15.09206        25.12477         2.53577
O         22.41907        20.68202         1.21987
O         32.44659        34.11743        -3.13914
H         32.49271        33.20103        -3.48827
O         21.06574        19.55100        -2.37884
H         20.93315        18.75570        -2.95117
O          9.42832        18.26131        -2.06643
H         10.32016        17.93657        -2.33740
O         26.81022        21.80520         1.86119
H         26.66033        21.04526         2.46519
O         16.46772        14.03292        -2.73158
H         17.07268        13.46657        -3.25432
O         17.06720        10.13364         1.36792
H         16.44147         9.58849         1.88884
O         26.73105        22.10122        -1.74605
H         26.99767        22.84716        -2.33094
O         13.96984        32.22765         1.55435
H         14.00191        30.95567         2.93246
O         29.99999        21.01295         2.62134
H         30.64410        21.63136         3.02949
O         30.56589        15.82487         2.48706
H         30.52632        16.68632         2.96958
O         31.23702        24.59544        -1.15118
H         30.50961        24.13702        -1.65517
O         13.34245        29.15820        -1.71114
H         13.30059        28.17792        -1.75699
O         29.08804         8.85917        -1.97725
H         28.61384         9.73114        -1.90024
O         18.17441        29.56481         2.95569
H         17.70839        28.84006         3.44014
O         18.90036        20.10948         1.69810
H         18.18763        19.71444         2.25422
O         22.20720        26.69944         2.74962
H         22.16899        27.58791         3.16302
O         33.17779        23.26309         2.83382
H         33.70979        24.01311         3.18988
O         26.28766        30.18242        -1.38537
H         26.77221        29.34677        -1.61813
O         21.62834        12.27845         0.88943
H         21.97825        13.06587         1.37702
O         23.43611        11.91681        -2.29255
H         24.42666        11.82963        -2.45371
O         12.08121        29.38036         1.69396
H         12.51738        29.41699         2.58307
O         11.05605        24.57324        -1.90020
H         11.72364        25.23164        -2.20666
O         14.66999        16.46390         1.83259
H         15.01334        15.53869         1.89925
O         24.19985        33.46035        -1.92485
H         24.89873        33.79673        -2.52491
O         25.48154        14.52937         1.98800
H         26.29216        14.95442         2.37471
O         23.78668        17.02446         1.48059
H         24.43486        17.56400         2.00230
O         13.49913        19.64010        -1.34046
H         13.21939        18.96893        -2.00700
O         26.89721        25.17507        -1.82455
H         27.22007        25.99228        -2.27461
O         11.28212        21.03767         2.22399
H         12.07563        21.04273         2.81144
O         19.17973        22.83419        -1.80650
H         20.06467        22.73240        -2.23089
O         28.42461        11.61062        -1.51281
H         27.53266        11.76703        -1.95991
O         16.62853        25.89669        -0.58226
H         16.64382        25.06220        -1.11222
O         15.41621        27.77806         3.16612
H         15.38354        26.85100         3.49878
O         30.40004        18.58669         2.76406
H         30.13641        19.40256         3.26611
O         35.14548        26.98750        -1.79575
H         34.48266        27.57659        -2.22227
O         31.55898         9.98316         1.39999
H         30.92839        10.07037         2.15061
O         28.84802        23.37359        -1.67326
H         29.22440        22.44297        -1.80332
O         10.75100        11.84186        -0.56329
H         10.91084        11.89152        -1.52806
O         26.86531        12.30787         1.73462
H         26.12528        12.85572         2.09714
O         20.87489        11.68937        -2.68282
H         21.83835        11.71619        -2.90901
O         34.82484        27.88659         1.73222
H         34.30105        27.51197         2.47817
O         24.97592        18.26728        -1.77825
H         24.64954        17.43812        -2.21369
O         14.11312        31.60607        -2.25651
H         14.07067        30.62484        -2.36779
O         26.98986        14.22543        -1.39115
H         26.49946        13.48334        -1.85360
O         34.04629        22.73732        -0.70837
H         33.08776        22.58418        -0.86713
O         31.27689        10.34886        -2.23050
H         30.52498         9.74647        -2.46802
O         24.02584        15.79882        -1.95678
H         23.34750        15.42685        -2.57536
O         19.55820         8.66875         1.57599
H         20.30853         9.29316         1.67999
O         27.89311        24.63097         1.65237
H         27.46717        23.76360         1.85509
O         22.48679        14.81728         1.23509
H         23.09073        15.39096         1.77460
H          7.23017        18.51396        -0.12341
H          6.05143        20.83114         0.12650
H          6.20126        23.25420         0.11937
H          7.53033        25.37806         0.06891
H          9.74826        14.06676         0.08133
H          8.49800        16.27826        -0.21813
H          8.83367        27.46351        -0.32467
H         10.24990        29.54199        -0.96209
H         12.31238         9.74726        -0.08892
H         11.70146        12.24345         1.20813
H         11.73678        31.54206         0.12144
H         12.42078        33.94660        -0.69276
H         15.72052         6.42541        -0.01853
H         13.58421         7.64320        -0.12491
H         15.86692        37.24335        -0.75880
H         13.76826        36.01407        -1.02346
H         18.19170         6.44310         0.02010
H         18.40896        37.22595        -0.59675
H         20.74755         6.42799         0.10175
H         20.87031        37.17958        -0.80107
H         23.17745         6.39526        -0.07911
H         23.34825        37.17905        -0.73938
H         25.65785         6.38145        -0.14603
H         25.83718        37.12894        -0.82428
H         28.18908         6.45056        -0.50856
H         28.27641        37.08999        -1.00883
H         30.79702         6.58441        -0.65734
H         30.62305        37.10497        -0.88520
H         32.82922         7.92526        -0.97003
H         34.01446        10.19270        -1.22622
H         34.01510        33.78647        -0.71205
H         32.82400        36.02971        -1.11888
H         35.23293        12.36516        -1.02466
H         36.44991        14.47747        -0.69273
H         36.56344        29.55448        -0.48151
H         35.20667        31.75344        -0.34671
H         37.62117        16.56145        -0.53334
H         38.79031        18.68207        -0.63910
H         38.91214        25.32833        -0.32066
H         37.74908        27.39757        -0.40216
H         40.12384        20.82663        -0.52787
H         40.17356        23.24499        -0.29936
