         429
 CSIRO Nanostructure Databank - Neutral Graphene Oxide Data Set
C          1.34631         2.00370         1.55629
C          1.32261         3.40756         1.57047
C          2.53239         1.31773         1.35890
C          2.49500         4.16045         1.38816
C          1.28173         6.35057         1.52825
C          1.25973         7.73528         1.49675
C          2.48545         5.62010         1.39817
C          2.45399         8.48523         1.36989
C          1.28018        10.69364         1.54382
C          1.27976        12.08813         1.48007
C          2.44201         9.94683         1.30999
C          2.43033        12.82620         1.12775
C          1.31350        15.01948         1.56196
C          1.36721        16.39314         1.74187
C          2.44834        14.27591         1.15554
C          2.56636        17.10538         1.53069
C          2.65884        18.50364         1.82768
C          3.74754         2.03162         1.17051
C          3.72725         3.46597         1.18835
C          4.96554         1.34366         0.96614
C          4.94579         4.18524         0.99314
C          3.70259         6.34554         1.25885
C          3.67238         7.76822         1.28757
C          4.94461         5.62146         1.02513
C          4.93090         8.53050         1.21006
C          3.64424        10.66221         0.95321
C          3.62303        12.10985         0.79093
C          4.85315         9.97171         0.87731
C          4.77307        12.83256         0.37421
C          3.65378        14.97744         0.83400
C          3.71586        16.41064         1.03489
C          4.79558        14.24880         0.40452
C          4.91476        17.13203         0.85289
C          3.84476        19.17709         1.70835
C          5.02283        18.50719         1.23148
C          6.17594         2.03822         0.78091
C          6.16359         3.47940         0.79113
C          7.40025         1.35235         0.57037
C          7.38845         4.18277         0.60239
C          6.14319         6.30140         0.76379
C          6.20318         7.76753         0.90826
C          7.36995         5.60892         0.53463
C          7.23047         8.50195         0.05369
C          6.02300        10.64032         0.28769
C          5.96808        12.09481        -0.08847
C          7.35024         9.96898         0.54817
C          7.25249        12.81977        -0.51790
C          6.01029        14.97321        -0.02916
C          6.07282        16.49218         0.22597
C          7.30094        14.27518        -0.11483
C          7.38961        17.13061         0.33013
C          6.24851        19.18231         1.10615
C          7.44470        18.51589         0.70225
C          8.61780         2.04322         0.42402
C          8.62241         3.48140         0.46861
C          9.84343         1.36389         0.20234
C          9.85516         4.18465         0.38165
C          8.59216         6.30931         0.32515
C          8.60159         7.77132        -0.11392
C          9.81553         5.62412         0.32082
C          9.76969         8.52455         0.52904
C          8.57069        10.69278         0.03293
C          8.53559        12.07843        -0.19755
C          9.78968         9.98742         0.11436
C          9.75321        12.80686        -0.30715
C          8.50324        14.96641        -0.16992
C          8.56232        16.41106         0.03819
C          9.75118        14.24292        -0.33058
C          9.81505        17.09689         0.00029
C          8.67777        19.18857         0.63844
C          9.86314        18.51171         0.25724
C         11.08642         2.01803         0.16021
C         11.10018         3.46369         0.32090
C         12.23124         1.20218        -0.21782
C         12.31096         4.23127         0.23892
C         11.05236         6.39328         0.18862
C         11.04244         7.77438         0.21910
C         12.29791         5.66836         0.02625
C         12.28444         8.54972         0.15347
C         11.00053        10.67299        -0.14123
C         10.98563        12.08935        -0.31480
C         12.24978         9.97477        -0.17623
C         12.21826        12.79055        -0.46686
C         10.98230        14.94066        -0.41389
C         11.02844        16.39654        -0.29420
C         12.18667        14.20724        -0.52605
C         12.23934        17.10812        -0.36652
C         11.09500        19.20429         0.16172
C         12.29412        18.52891        -0.15085
C         13.55533         1.44381         0.13947
C         13.57940         3.67054         0.45726
C         14.74572         0.84641        -0.35761
C         14.77187         4.29754        -0.00913
C         13.47671         6.34372        -0.27580
C         13.56996         7.79851        -0.15811
C         14.71923         5.65148        -0.50895
C         14.69688         8.51966        -0.75905
C         13.44520        10.63343        -0.50000
C         13.44617        12.05665        -0.60900
C         14.65860         9.88999        -0.81286
C         14.69922        12.72812        -0.72848
C         13.45340        14.92047        -0.73563
C         13.49993        16.41846        -0.68166
C         14.70901        14.17257        -0.45865
C         14.80491        17.09904        -0.48179
C         13.53465        19.21824        -0.25160
C         14.79280        18.55480        -0.37592
C         16.04155         1.38245        -0.11685
C         15.97974         3.60963        -0.00920
C         17.26434         1.06900        -0.69276
C         17.13303         4.05913        -0.77016
C         15.86321         6.30386        -0.93048
C         15.81082         7.72456        -1.42300
C         17.10287         5.55255        -1.17306
C         17.16086         8.40819        -1.34631
C         15.83783        10.63388        -1.32476
C         15.89461        12.07410        -1.02666
C         17.14849         9.86675        -1.52502
C         17.13999        12.79705        -1.14360
C         16.00326        14.91108        -0.48793
C         15.99430        16.39531        -0.55791
C         17.20203        14.15271        -0.87922
C         17.26535        17.07242        -0.59455
C         15.99983        19.24297        -0.34393
C         17.30327        18.51768        -0.15797
C         18.45122         1.91842        -0.58765
C         18.42694         3.35808        -0.63806
C         19.70402         1.29691        -0.58639
C         19.60601         4.12595        -0.74908
C         18.39264         6.27064        -1.16836
C         18.36691         7.71747        -1.28974
C         19.58472         5.57197        -0.97160
C         19.64370         8.41493        -1.43111
C         18.39751        10.59548        -1.46372
C         18.34926        12.04932        -1.60249
C         19.62614         9.85207        -1.92928
C         19.64936        12.77865        -1.76960
C         18.47070        14.90521        -0.90801
C         18.44150        16.38833        -0.86441
C         19.71764        14.20544        -1.31629
C         19.70241        17.08523        -0.97768
C         18.53314        19.22700        -0.65265
C         19.67763        18.54599        -0.91297
C         20.90067         2.04750        -0.51084
C         20.86702         3.47298        -0.59454
C         22.14681         1.38768        -0.35824
C         22.07865         4.22487        -0.47848
C         20.83556         6.31043        -0.94123
C         20.82394         7.73163        -1.26754
C         22.03265         5.66335        -0.62393
C         22.16349         8.36695        -1.61995
C         20.93609        10.60137        -1.73384
C         20.94632        12.05541        -1.76513
C         22.10630         9.88500        -1.71550
C         22.13059        12.80530        -1.79735
C         20.88481        15.01358        -1.83053
C         20.90089        16.39981        -1.22427
C         22.18266        14.24127        -1.71358
C         22.16265        17.06111        -1.10865
C         20.97791        19.27142        -1.19285
C         22.10459        18.45812        -0.52451
C         23.31873         2.11067        -0.21167
C         23.28966         3.53124        -0.24122
C         24.62259         1.36012        -0.03166
C         24.56431         4.26082        -0.03671
C         23.24916         6.46639        -0.30397
C         23.24988         7.97112        -0.58926
C         24.54310         5.76264        -0.01677
C         24.63209         8.50356        -0.96523
C         23.39556        10.57974        -1.92319
C         23.39850        12.08121        -2.04584
C         24.67966         9.86981        -1.55259
C         24.70589        12.84133        -1.93893
C         23.38840        14.96794        -1.63167
C         23.35661        16.39955        -1.37115
C         24.67761        14.30875        -1.65630
C         24.63060        17.20923        -1.53023
C         23.42319        19.15210        -0.48751
C         24.59865        18.53140        -0.80281
C         25.75733         2.08678        -0.76674
C         25.84454         3.53005        -0.29256
C         27.07350         1.38801        -0.62822
C         27.06973         4.29522        -0.64146
C         25.89376         6.49171        -0.04207
C         25.81069         7.87667        -0.67072
C         27.03408         5.67494        -0.64984
C         27.08047         8.58527        -0.82024
C         25.89060        10.69474        -1.33024
C         25.90766        12.05155        -1.57346
C         27.10826         9.98556        -1.00195
C         27.18570        12.77619        -1.54211
C         25.87085        15.02007        -1.47049
C         25.91341        16.44580        -1.27980
C         27.16075        14.29111        -1.51419
C         27.11872        17.14530        -1.09773
C         25.83673        19.16394        -0.49749
C         27.08658        18.56061        -0.67423
C         28.27477         2.09127        -0.70225
C         28.28668         3.53679        -0.82146
C         29.52085         1.39294        -0.65286
C         29.53457         4.19295        -0.95416
C         28.25665         6.41409        -1.00497
C         28.31062         7.87277        -0.76462
C         29.55446         5.65777        -1.14524
C         29.54406         8.53426        -0.66816
C         28.34755        10.68531        -0.89795
C         28.39614        12.09292        -1.06245
C         29.55656         9.97428        -0.62332
C         29.58379        12.81240        -0.83611
C         28.38058        14.97157        -1.06216
C         28.36528        16.38694        -1.05219
C         29.58838        14.25607        -0.86218
C         29.63077        17.00101        -1.07763
C         28.19862        19.31045        -0.15851
C         29.54323        19.04677        -0.46022
C         30.74793         2.06202        -0.73344
C         30.74197         3.48338        -0.91366
C         31.99291         1.34106        -0.59721
C         32.05265         4.18171        -1.19369
C         30.83203         6.38082        -0.91518
C         30.81200         7.81996        -0.68431
C         32.00632         5.67610        -0.91381
C         32.00169         8.51284        -0.44786
C         30.75189        10.69028        -0.40976
C         30.78569        12.10434        -0.48889
C         31.94822         9.92637         0.08751
C         32.00318        12.82080        -0.26446
C         30.79636        14.95605        -0.55552
C         30.82204        16.37790        -0.62926
C         32.01541        14.24723        -0.29550
C         31.98465        17.13879        -0.25000
C         30.73063        19.33634         0.21374
C         31.94267        18.56757         0.04145
C         33.20169         2.00107        -0.41337
C         33.17307         3.49012        -0.42768
C         34.42579         1.33954        -0.11612
C         34.45057         4.21245        -0.20727
C         33.28037         6.41276        -0.82956
C         33.26819         7.84316        -0.47721
C         34.56390         5.65123        -0.59118
C         34.45609         8.48694        -0.12216
C         33.22657        10.69136        -0.06712
C         33.23834        12.08644        -0.07282
C         34.53587         9.98833        -0.21214
C         34.47159        12.78911         0.12786
C         33.20542        14.98825        -0.08620
C         33.18615        16.40504         0.00925
C         34.54682        14.28318        -0.06030
C         34.40212        17.10348         0.38667
C         33.14339        19.21522         0.37294
C         34.38065        18.53631         0.48296
C         35.63705         2.00972         0.16509
C         35.69321         3.46510         0.09242
C         36.84494         1.30697         0.42313
C         36.83871         4.16002         0.36807
C         35.71426         6.38098        -0.05238
C         35.66958         7.74731         0.09322
C         36.99917         5.60929        -0.02713
C         36.82653         8.41285         0.75080
C         35.62656        10.67854         0.56838
C         35.63449        12.08609         0.56194
C         36.74678         9.89331         1.08116
C         36.81346        12.83114         0.99979
C         35.48330        14.92268         0.96432
C         35.57385        16.41118         0.74132
C         36.82049        14.21563         1.04838
C         36.76271        17.09555         1.08376
C         35.56906        19.22922         0.78773
C         36.76836        18.54206         1.05796
C         38.04509         1.97216         0.74588
C         38.00843         3.44027         0.89373
C         39.27962         1.32277         0.95839
C         39.32524         4.20228         1.05071
C         38.18240         6.34321         0.56138
C         38.13394         7.74620         0.73760
C         39.37075         5.63987         0.74759
C         39.34084         8.47806         1.04679
C         38.03140        10.59293         1.41841
C         38.02895        12.10676         1.42087
C         39.29678         9.87401         1.27082
C         39.31402        12.83954         1.41334
C         38.00578        14.96014         1.38851
C         37.94671        16.37176         1.44650
C         39.27795        14.25641         1.51539
C         39.13049        17.14445         1.85949
C         37.96424        19.26003         1.30768
C         39.15822        18.60381         1.64455
C         40.48644         2.02839         1.13230
C         40.56385         3.42296         1.09724
C         41.79292         4.17071         1.20232
C         40.68613         6.35655         0.62137
C         40.59613         7.78893         1.11924
C         41.84630         5.52595         1.10521
C         41.73041         8.50428         1.60690
C         40.58663        10.64305         1.12214
C         40.53004        12.12870         1.43210
C         41.72354         9.86925         1.72887
C         41.72702        12.85387         1.51495
C         40.50605        14.95593         1.66986
C         40.49828        16.41424         1.93987
C         41.71093        14.24103         1.65559
C         41.68503        17.23878         1.73822
C         40.37533        19.29766         1.77202
C         41.61002        18.61427         1.78085
O         18.84003        12.53463        -2.96879
O         16.10708         2.49266         0.78776
O         16.89627         4.48615        -2.15497
O         34.19639         6.03978        -1.95053
O         13.25569         8.23863         1.22145
O          5.69701        11.04297        -1.10529
O         38.43221         3.92380         2.20817
O          5.78054        15.93599        -1.10568
O         24.10011        12.53221        -3.24621
O         27.39737        13.56412        -2.77498
O         28.81488         6.08429        -2.34094
O         37.89432        11.34591         2.68590
O         13.70454         2.46235         1.12048
O         23.69134         6.22764         1.08699
O         39.71457        16.74147         3.13471
O         19.46258        14.36157         0.10269
O         24.21081         9.92747        -2.94869
O         25.38696         3.73093         1.08504
O         15.38336        14.48428         0.80705
O         33.44617         4.06620         0.88596
O          5.92836         8.19532         2.26561
O         13.48171        15.69200        -1.98513
O         36.40440         8.88434         2.09473
O         16.24579        10.29029        -2.69363
O         29.72713        18.26667        -1.62899
O         40.82312        10.62398        -0.35101
H         41.05421         9.69979        -0.59300
O         40.91012         6.49852        -0.85077
H         40.03077         6.49252        -1.28940
O         24.66981        17.55424        -2.96104
H         24.91105        16.74151        -3.45506
O         22.57248         7.80468        -2.88412
H         22.04818         8.22846        -3.59588
O          7.22303        12.89020        -1.98130
H          6.70745        12.11363        -2.29837
O         31.75024         9.77686         1.54904
H         30.88417         9.33600         1.68428
O         34.95537        10.19598        -1.63859
H         34.96125        11.16585        -1.79579
O         20.64127        15.20209        -3.25902
H         21.45974        15.55745        -3.66482
O         17.47636        18.45128         1.31887
H         18.29682        17.93825         1.48712
O         35.15458        14.51140        -1.37363
H         34.49819        14.26737        -2.05946
O         25.38613         2.08811        -2.18182
H         26.17691         2.34166        -2.70346
O          7.48447        10.05900         1.98341
H          8.22247         9.46209         2.27115
O         21.68218        18.33055         0.87431
H         22.35992        17.80227         1.34609
O         15.46080         7.66082        -2.84363
H         15.63117         8.56430        -3.21117
O          9.62548         8.45494         1.98367
H         10.47522         8.73541         2.38634
O         20.95159        20.59252        -0.66526
H         20.89853        20.50929         0.31030
O          6.61104         8.49760        -1.26370
H          6.42327         9.41765        -1.56219
O          8.93670         7.74874        -1.51665
H          8.08080         7.74058        -2.01052
O         24.51611         0.03457        -0.54646
H         24.51899         0.11373        -1.52493
O         37.38952         5.53238        -1.46393
H         36.56710         5.50825        -2.00305
O         34.85073        14.74402         2.26365
H         35.47977        15.04026         2.95445
O         26.28604         6.69257         1.34497
H         26.07102         5.86196         1.82573
O         22.89407         8.65178         0.63572
H         23.28201         8.12073         1.37165
O         19.47307         9.76957        -3.38940
H         19.24212        10.68143        -3.69508
O         32.35621         3.99401        -2.60459
H         31.71190         4.51604        -3.12742
H          0.40914         1.44914         1.70392
H          0.35930         3.90879         1.73292
H          2.54696         0.21863         1.34670
H          0.32635         5.81960         1.63381
H          0.29100         8.24740         1.56968
H          0.34426        10.18859         1.81874
H          0.34305        12.60994         1.71550
H          0.36770        14.50418         1.77490
H          0.47544        16.93358         2.09068
H          1.75968        19.02370         2.18921
H          4.96511         0.24340         0.95300
H          3.91141        20.24232         1.97239
H          7.39720         0.25244         0.53876
H          6.30056        20.25042         1.36380
H          9.81760         0.27130         0.07618
H          8.72568        20.25827         0.88975
H         12.00647         0.29559        -0.80016
H         11.11628        20.28819         0.34802
H         14.65150         0.02675        -1.08362
H         13.53248        20.31312        -0.13950
H         17.37960         0.11616        -1.23061
H         15.99794        20.33884        -0.23932
H         19.76588         0.19901        -0.58503
H         18.55608        20.32799        -0.63472
H         22.18427         0.28910        -0.33279
H         21.15976        19.34290        -2.29559
H         24.86900         1.28651         1.05745
H         23.44618        20.14975        -0.02167
H         27.08047         0.29044        -0.55567
H         25.79757        20.16728        -0.04628
H         29.50560         0.29991        -0.52925
H         27.96399        20.13411         0.53300
H         31.95511         0.24267        -0.53795
H         30.75534        20.15898         0.94398
H         34.42245         0.23867        -0.08600
H         33.12149        20.29653         0.57469
H         36.83995         0.20711         0.37811
H         35.55556        20.32796         0.83846
H         39.31047         0.22376         0.93029
H         37.95984        20.35589         1.20955
H         41.41795         1.45234         1.23721
H         42.71301         3.60921         1.42803
H         42.81858         6.02524         1.22665
H         42.62519         7.94304         1.91405
H         42.60378        10.39054         2.12963
H         42.69346        12.33302         1.48536
H         42.66529        14.77254         1.77125
H         42.64803        16.75700         1.51933
H         40.37049        20.39502         1.70442
H         42.53542        19.20367         1.70830
