         324
 CSIRO Nanostructure Databank - Neutral Graphene Oxide Data Set
C          1.55934         1.99862        -1.43341
C          1.49086         3.38973        -1.47051
C          2.75863         1.35192        -1.12109
C          2.61399         4.17223        -1.13296
C          1.44504         6.34517        -1.48287
C          1.45622         7.74618        -1.67493
C          2.61359         5.63721        -1.25605
C          2.63006         8.47804        -1.65056
C          1.37537        10.67004        -1.39372
C          1.38608        11.98706        -1.09920
C          2.60046         9.96899        -1.93449
C          2.59604        12.79328        -1.17490
C          1.31185        14.91609        -0.72940
C          1.27474        16.25757        -0.38075
C          2.54094        14.22549        -0.89305
C          2.46256        16.96918        -0.09416
C          2.45003        18.39603         0.17325
C          3.89186         2.10053        -0.78064
C          3.79575         3.50438        -0.73516
C          5.22744         1.39819        -0.59943
C          4.96854         4.31487        -0.34019
C          3.87138         6.35969        -1.23245
C          3.88045         7.79763        -1.45636
C          5.04437         5.67973        -0.89321
C          5.07694         8.54531        -1.35051
C          3.85915        10.69155        -1.50392
C          3.81070        12.13000        -1.36632
C          5.04064         9.98313        -1.32593
C          5.06986        12.91197        -1.43473
C          3.73699        14.95872        -0.68250
C          3.69437        16.28683        -0.21671
C          5.04078        14.36239        -1.03414
C          4.93779        16.95386         0.20980
C          3.58187        19.11223         0.39560
C          4.88715        18.45048         0.56527
C          6.15349         2.11456         0.42368
C          6.19879         3.63313         0.17502
C          7.51139         1.47004         0.43564
C          7.51201         4.31409         0.00290
C          6.35378         6.30651        -1.00376
C          6.37005         7.85162        -1.26287
C          7.55567         5.68181        -0.42591
C          7.61588         8.54725        -0.90903
C          6.27317        10.73753        -0.97027
C          6.39804        12.16426        -1.47581
C          7.57383        10.01828        -0.78393
C          7.55860        12.91408        -0.84004
C          6.30072        15.03824        -0.64109
C          6.24641        16.37611        -0.14611
C          7.51726        14.31609        -0.67809
C          7.39733        17.11437         0.14931
C          6.14884        19.19334         0.52280
C          7.36665        18.52566         0.47686
C          8.71076         2.17029         0.43898
C          8.68514         3.61904         0.27180
C          9.95922         1.47176         0.46228
C          9.94003         4.36703         0.37701
C          8.77775         6.40507        -0.45079
C          8.78507         7.83415        -0.71906
C          9.98457         5.76767        -0.04788
C         10.08949         8.54210        -0.71482
C          8.81681        10.80282        -0.78199
C          8.78241        12.20114        -0.64354
C         10.08629        10.08298        -0.77440
C         10.01119        12.91943        -0.32554
C          8.78111        15.04706        -0.44729
C          8.71597        16.50448        -0.06628
C         10.01443        14.29798        -0.15900
C          9.84241        17.09409         0.75071
C          8.62399        19.24454         0.56412
C          9.85361        18.60211         0.63795
C         11.22133         2.11485         0.34486
C         11.25455         3.59141         0.47693
C         12.39904         1.43132         0.09516
C         12.49376         4.31589         0.15295
C         11.24122         6.44091        -0.02995
C         11.29515         7.85448        -0.24667
C         12.46530         5.72439         0.08820
C         12.49637         8.56459         0.01709
C         11.26824        10.80108        -0.27347
C         11.23039        12.16702        -0.13044
C         12.41771        10.02175         0.23438
C         12.49248        12.92141         0.05099
C         11.20759        15.03515         0.22741
C         11.16791        16.42542         0.50196
C         12.44160        14.35617         0.34278
C         12.36240        17.13897         0.72955
C         11.09749        19.28034         0.72251
C         12.32974        18.59984         0.80815
C         13.70395         2.10409        -0.24650
C         13.69848         3.59725         0.00505
C         14.89220         1.43133         0.40378
C         14.93378         4.30308         0.11574
C         13.74574         6.46097        -0.23565
C         13.72327         7.90505         0.20235
C         14.95542         5.68915         0.19318
C         14.93122         8.60122         0.54944
C         13.66944        10.73271         0.64164
C         13.76379        12.19049         0.35871
C         14.93794         9.99799         0.75355
C         14.90456        12.90861         0.95694
C         13.62040        15.02605         0.74869
C         13.59214        16.44692         0.85613
C         14.81774        14.29300         1.09593
C         14.82045        17.17456         1.10895
C         13.55620        19.29739         0.89284
C         14.79518        18.63385         1.02913
C         16.11548         2.06713         0.49539
C         16.19246         3.50508         0.13906
C         17.31703         1.43076         0.93789
C         17.49102         4.21341         0.33771
C         16.15688         6.41394         0.63828
C         16.18789         7.89953         0.66658
C         17.43136         5.64987         0.73571
C         17.36755         8.58388         0.92358
C         16.10725        10.72961         1.11599
C         16.05473        12.13924         1.32436
C         17.36769        10.01004         1.19362
C         17.20275        12.81988         1.94759
C         15.95317        15.05357         1.65477
C         15.98639        16.50569         1.40977
C         17.22047        14.33208         2.03306
C         17.21753        17.25328         1.86487
C         16.02269        19.31834         1.04867
C         17.25240        18.64415         1.27705
C         18.55980         2.09239         1.06638
C         18.68505         3.48398         0.80007
C         19.72467         1.36397         1.52728
C         19.87752         4.22119         1.11322
C         18.72528         6.38448         0.75584
C         18.67402         7.86419         0.90454
C         19.91337         5.61089         1.18960
C         19.91156         8.54861         1.34522
C         18.55834        10.68767         1.46359
C         18.51931        12.05070         2.02085
C         19.86796        10.02020         1.27651
C         19.78542        12.85125         2.22598
C         18.50292        15.08950         1.88854
C         18.50631        16.45367         1.69936
C         19.78675        14.36759         2.09772
C         19.76375        17.16692         1.53774
C         18.46549        19.26565         1.06612
C         19.72629        18.59104         1.23313
C         20.94669         1.97315         1.67876
C         21.11333         3.44193         1.41075
C         22.17966         1.24521         1.84592
C         22.18759         4.13228         2.22658
C         20.90643         6.37614         2.06901
C         21.04513         7.86192         1.70538
C         22.22601         5.62145         2.21926
C         22.30114         8.57679         1.95565
C         21.13308        10.74033         1.60544
C         21.09999        12.14192         2.11877
C         22.35200         9.95615         1.88974
C         22.38002        12.93861         1.91129
C         21.05533        15.05557         1.73670
C         20.98205        16.47455         1.51898
C         22.27796        14.38038         1.62784
C         22.26282        17.19745         1.37566
C         20.88663        19.29120         0.96514
C         22.20745        18.69466         1.13041
C         23.37411         1.91789         1.64985
C         23.24458         3.40580         1.42776
C         24.59884         1.24213         1.33063
C         24.54742         4.14270         1.34634
C         23.47204         6.31688         1.80469
C         23.54693         7.77480         2.04301
C         24.55486         5.63116         1.31784
C         24.87689         8.48481         1.69464
C         23.60750        10.74689         1.89002
C         23.57048        12.18343         1.48441
C         24.88895         9.99116         1.67107
C         24.68515        12.84453         0.98245
C         23.46661        15.03130         1.10486
C         23.46041        16.43967         0.94576
C         24.63672        14.28117         0.76339
C         24.57680        17.11284         0.39605
C         23.37993        19.42512         0.51572
C         24.56748        18.54361         0.18791
C         25.73280         1.90521         0.88531
C         25.79463         3.38340         1.05591
C         26.89018         1.21748         0.39018
C         26.94613         4.15346         0.48891
C         25.72305         6.31745         0.77348
C         25.80042         7.72763         0.84114
C         26.74413         5.57375         0.13221
C         26.72195         8.45668        -0.03400
C         26.04665        10.70598         1.04178
C         25.92268        12.13982         0.69874
C         27.06078         9.87305         0.28238
C         26.99128        12.78402         0.08242
C         25.77070        14.94093         0.20655
C         25.72997        16.35900         0.00227
C         26.94147        14.19821        -0.18654
C         26.83261        17.01700        -0.61830
C         25.65488        19.17117        -0.36236
C         26.80461        18.44030        -0.80057
C         28.00861         1.87609        -0.08997
C         28.07630         3.35855        -0.09065
C         29.17411         1.19171        -0.58479
C         29.04721         4.00675        -0.98774
C         27.64486         6.19257        -0.85740
C         27.69489         7.69825        -0.95383
C         28.79800         5.38450        -1.44828
C         28.92477         8.38632        -1.37530
C         28.07634        10.55180        -0.52711
C         28.19891        12.00020        -0.30104
C         29.05731         9.80504        -1.21249
C         29.30788        12.71191        -1.07105
C         28.01337        14.85720        -0.86230
C         27.94809        16.27362        -1.09290
C         29.14084        14.14171        -1.38143
C         28.99536        16.94148        -1.79656
C         27.86053        19.09357        -1.43729
C         28.95418        18.36394        -1.96064
C         30.22816         1.87429        -1.13304
C         30.16279         3.29719        -1.39030
C         31.22518         3.98886        -2.09626
C         29.91258         6.09188        -2.16383
C         29.96067         7.64202        -2.10328
C         31.13369         5.30307        -2.42105
C         31.21443         8.34656        -2.40858
C         30.20020        10.49168        -1.79689
C         30.23907        11.89396        -1.87004
C         31.28828         9.69544        -2.31306
C         31.17520        12.60153        -2.68061
C         30.11561        14.76749        -2.17777
C         30.08032        16.20635        -2.36494
C         31.13818        13.97028        -2.79105
C         31.08603        16.89898        -3.06100
C         29.99775        19.02294        -2.65984
C         31.04486        18.29337        -3.19944
O         25.44491         3.72565         2.44334
O         24.57637         8.03069         3.04163
O         12.67723        10.38399         1.66573
O          6.58686         6.88005        -2.33136
O         27.51836         5.50278        -2.16229
O         22.26978         4.79943         3.48807
O         16.30319        14.78132         3.09231
O         21.95130        12.43119         3.24015
O          6.71156        10.48285         0.38783
O         26.44946         8.29016        -1.46856
O         18.93119         7.22591        -0.43073
O         16.65010         5.85032         1.95087
O         27.27429        10.23844         1.69197
O         24.55791        10.53102         2.98443
O         29.44889         6.88356        -3.28282
O          5.04130        13.94920        -2.47523
O         10.61623         4.10770         1.67674
O         17.04735         3.85404        -1.01931
O          5.31041         4.32800         1.12535
O         19.76171        13.68687         3.40660
O         17.63272        12.15933         3.17861
O         22.21344         3.49476         0.28966
O         22.50930        18.17127         2.46549
O         28.18654         3.95067         1.27797
O         13.47455        12.57303        -1.02108
O         20.69197        10.64315         0.19709
O          4.87589        17.40046         1.60144
O         29.42879        12.42832         0.37202
O         10.32666         9.26965        -1.97916
O          9.02292        16.14043        -1.43493
O          9.49828        16.77468         2.13774
H         10.14624        17.22187         2.72200
O         23.78346        20.47220         1.41108
H         23.82144        20.08095         2.31047
O         13.87250         1.94840        -1.70960
H         14.79395         2.20780        -1.92841
O         20.24636         6.40456         3.36323
H         20.70279         5.74098         3.93608
O          6.75155        12.01932        -2.87851
H          6.50576        12.86620        -3.31871
O         17.06172        17.43538         3.30704
H         16.86974        16.54078         3.68332
O          5.56232         1.86426         1.72566
H          5.17931         2.72509         2.02670
O          2.53121        10.09304        -3.39657
H          2.59783        11.04722        -3.61412
O         13.81508         6.51868        -1.71798
H         13.85264         5.59553        -2.04925
O          5.03910         0.05913        -0.15617
H          4.92000         0.11030         0.81940
H          0.67218         1.40499        -1.69477
H          0.55405         3.86946        -1.78438
H          2.82993         0.25591        -1.14740
H          0.47732         5.82669        -1.51359
H          0.49558         8.24356        -1.86395
H          0.42576        10.11971        -1.33397
H          0.45354        12.46372        -0.76660
H          0.36204        14.39757        -0.91591
H          0.30721        16.77453        -0.30648
H          1.48241        18.91540         0.10452
H          5.73496         1.36031        -1.60283
H          3.53792        20.20888         0.47311
H          7.52809         0.37315         0.52382
H          6.12301        20.29275         0.56118
H          9.92937         0.37184         0.46006
H          8.58640        20.34472         0.59090
H         12.36573         0.33537        -0.00604
H         11.10129        20.38145         0.71722
H         14.79886         0.37934         0.71454
H         13.54332        20.39778         0.87475
H         17.26972         0.36173         1.19525
H         16.04205        20.39672         0.82759
H         19.63083         0.28072         1.69771
H         18.48598        20.31107         0.72114
H         22.15571         0.14964         1.94238
H         20.82240        20.32036         0.58144
H         24.58772         0.14101         1.32536
H         23.03871        19.92197        -0.43233
H         26.87172         0.11674         0.37789
H         25.63363        20.26102        -0.50692
H         29.21502         0.09612        -0.49654
H         27.82748        20.18548        -1.56509
H         31.11840         1.32661        -1.47422
H         32.12908         3.42161        -2.36157
H         31.94851         5.77959        -2.98347
H         32.06187         7.77832        -2.81411
H         32.22002        10.19847        -2.60535
H         31.93334        12.04595        -3.24897
H         31.88803        14.45813        -3.42709
H         31.93323        16.35699        -3.50100
H         29.96115        20.11561        -2.77371
H         31.85103        18.80584        -3.74235
