         324
 CSIRO Nanostructure Databank - Neutral Graphene Oxide Data Set
C         30.55915        57.30606        -0.95261
C         30.56225        58.72735        -0.97318
C         29.49103        59.43924        -1.57560
C         30.62975        61.53004        -1.16680
C         29.53011        60.82363        -1.66865
C         32.94379        53.03043        -0.50355
C         32.91220        54.44039        -0.37120
C         31.74861        55.17093        -0.69717
C         32.85949        57.25983        -0.04059
C         31.70391        56.57232        -0.55890
C         32.75133        58.72488         0.33273
C         31.66478        59.45323        -0.43127
C         32.84143        61.63807         0.03054
C         31.69006        60.84917        -0.54345
C         35.32976        48.70091        -0.52299
C         35.30839        50.16940        -0.16809
C         34.15777        50.88956        -0.40164
C         35.28221        52.99622         0.23771
C         34.10547        52.30751        -0.20676
C         35.27457        54.41199         0.38931
C         34.08037        55.13711         0.09037
C         35.17115        57.27563         0.90773
C         34.01715        56.55541         0.25199
C         35.26549        58.71980         0.47026
C         34.08671        59.43452         0.25457
C         35.34445        61.49271        -0.02816
C         34.12615        60.84338         0.05292
C         38.03357        44.57387        -0.80566
C         37.80817        45.82237        -0.20401
C         36.66182        46.60221        -0.45227
C         37.64712        48.63291         0.52015
C         36.57256        47.96043        -0.08636
C         37.65079        50.06926         0.66005
C         36.48203        50.82823         0.32635
C         37.67485        52.92716         0.83924
C         36.46822        52.24389         0.50644
C         37.71770        54.37752         0.89388
C         36.48722        55.11181         0.73679
C         37.67899        57.25086         0.92433
C         36.48173        56.53205         0.81051
C         37.73766        58.66950         0.73905
C         36.52445        59.38058         0.45223
C         37.80865        61.42544         0.02725
C         36.56469        60.77955         0.14483
C         40.59823        40.42958        -1.65128
C         40.03562        41.43111        -0.86750
C         39.22327        42.53042        -1.23124
C         40.22055        44.31559         0.35193
C         39.15381        43.75836        -0.51233
C         40.11800        45.62138         0.79641
C         38.83845        46.34289         0.69976
C         40.05834        48.52352         1.34236
C         38.77742        47.84319         1.04418
C         40.00092        49.98054         1.55258
C         38.80176        50.74996         1.12204
C         40.15688        52.85948         0.98789
C         38.82799        52.16458         1.13231
C         40.18545        54.36381         1.24265
C         38.92465        55.06048         1.16304
C         40.20800        57.30011         1.41359
C         38.90691        56.52812         1.29439
C         40.24418        58.70131         0.90970
C         38.99390        59.34951         0.66622
C         40.24926        61.34255        -0.04824
C         39.01315        60.72291         0.23562
C         43.08211        36.24263        -1.95995
C         43.03519        37.54358        -1.54504
C         41.90971        38.39939        -1.85225
C         42.71176        39.99492        -0.10609
C         41.71904        39.61506        -1.23704
C         42.75618        41.48096         0.18113
C         41.60889        42.15658         0.43580
C         42.60532        44.22931         1.08307
C         41.48208        43.59694         0.61128
C         42.54699        45.61915         1.57204
C         41.17602        46.29593         1.66287
C         42.49632        48.54745         1.64180
C         41.24162        47.82658         1.49618
C         42.56125        49.92771         1.75624
C         41.30096        50.70027         1.84492
C         42.56832        52.82695         1.06012
C         41.32921        52.22062         1.77174
C         42.72008        54.28124         1.54442
C         41.39284        55.01768         1.38406
C         42.64403        57.12677         0.79723
C         41.51109        56.51612         1.58304
C         42.68512        58.50759         0.64802
C         41.48016        59.33856         0.64296
C         42.60910        61.39955        -0.47496
C         41.48678        60.69278         0.09408
C         45.64555        33.62589        -2.73501
C         44.41402        34.18430        -2.52906
C         45.51957        36.15428        -1.43340
C         44.24550        35.36151        -1.60804
C         45.46577        37.47565        -0.99150
C         44.19633        38.16791        -0.90484
C         45.31652        40.16891        -0.02900
C         44.10583        39.44394        -0.38283
C         45.29571        41.51992         0.32835
C         44.01743        42.29574         0.16112
C         45.17301        44.21174         1.31824
C         43.89179        43.47996         1.10450
C         45.12916        45.69170         1.30060
C         43.82699        46.39107         1.58065
C         44.99528        48.53117         1.93662
C         43.80382        47.87246         1.27196
C         45.04636        49.97844         2.02943
C         43.84163        50.63748         1.78390
C         45.10822        52.74329         1.01534
C         43.84011        52.00934         1.21886
C         45.04612        54.20520         0.67383
C         43.88494        54.90903         0.77835
C         45.04975        57.02555        -0.18126
C         43.78353        56.31752         0.34082
C         45.13314        58.48537         0.02283
C         43.98933        59.10367         0.49504
C         45.14338        61.38222        -0.85643
C         43.95190        61.13236        -0.17042
C         46.82877        34.22884        -2.23136
C         47.97480        36.18852        -1.26359
C         46.78739        35.49994        -1.61900
C         47.93507        37.50199        -0.76535
C         46.66432        38.17501        -0.62253
C         47.80958        40.21498         0.14631
C         46.59773        39.50030        -0.15366
C         47.77624        41.55355         0.56943
C         46.50657        42.24259         0.65958
C         47.68356        44.22274         1.73421
C         46.48393        43.58614         1.04111
C         47.70475        45.75113         1.82766
C         46.38567        46.43075         1.68591
C         47.93712        48.74121         2.45461
C         46.05270        47.72916         2.28619
C         47.72345        50.03644         2.01203
C         46.37877        50.71955         2.07486
C         47.59581        52.73196         0.89764
C         46.37568        52.13894         1.54717
C         47.57093        54.21940         0.70989
C         46.30479        54.82506         0.18729
C         47.61247        57.04519        -0.10250
C         46.34191        56.27493        -0.19949
C         47.58274        58.47856        -0.32950
C         46.35831        59.21004        -0.25558
C         47.57312        61.23225        -0.94497
C         46.35118        60.61902        -0.62137
C         49.12289        38.20636        -0.45232
C         50.27745        40.26908         0.18491
C         49.08370        39.54393        -0.02827
C         50.25792        41.62219         0.56586
C         48.99343        42.29227         0.81331
C         50.19354        44.37468         1.40025
C         48.97929        43.62049         1.25536
C         50.17973        45.72147         1.78219
C         48.92548        46.44700         1.96834
C         50.23838        48.60486         1.73010
C         49.03112        47.89884         2.09008
C         50.22587        50.01212         1.53138
C         49.00218        50.83870         1.86274
C         50.16123        52.83480         0.79516
C         48.90755        52.05621         0.97722
C         50.12642        54.21083         0.51631
C         48.84938        54.96570         0.53844
C         50.07605        57.03013        -0.15742
C         48.81560        56.37025         0.05435
C         50.06621        58.45340        -0.47467
C         48.81674        59.15127        -0.55189
C         50.04144        61.23286        -1.03390
C         48.81632        60.55776        -0.84366
C         51.45526        42.34549         0.70869
C         52.66007        44.41709         1.07257
C         51.45495        43.70592         1.07753
C         52.72284        45.78416         1.45108
C         51.49317        46.43911         2.06549
C         52.66253        48.60845         1.50944
C         51.46868        47.90792         1.71050
C         52.62240        49.95750         1.10487
C         51.40195        50.68468         1.12843
C         52.58259        52.84042         0.58203
C         51.38742        52.12552         0.83016
C         52.56610        54.22596         0.29681
C         51.32141        54.91660         0.22659
C         52.50214        56.96123        -0.72620
C         51.26959        56.30951        -0.13511
C         52.56426        58.44229        -0.30476
C         51.26917        59.15259        -0.61361
C         52.51273        61.23740        -1.06301
C         51.27815        60.55728        -0.89959
C         53.89925        46.48675         1.35574
C         55.20208        48.64617         1.36530
C         53.97181        47.91462         1.82968
C         55.18220        49.94610         0.92692
C         53.87341        50.60817         0.67395
C         55.13399        52.82274         0.59693
C         53.84981        52.08718         0.44067
C         55.10140        54.30107         0.34021
C         53.80298        54.95878         0.04426
C         55.02960        56.93142        -0.89917
C         53.78690        56.26034        -0.37029
C         55.02091        58.44951        -0.83279
C         53.79906        59.14796        -0.80781
C         54.97580        61.23782        -1.32396
C         53.76686        60.55840        -1.04656
C         56.38619        50.68137         0.65184
C         57.58795        52.81125         0.25304
C         56.40716        52.07327         0.45458
C         57.59031        54.22310         0.00963
C         56.35834        54.94596        -0.05870
C         57.53059        56.97937        -0.65795
C         56.33092        56.29708        -0.45543
C         57.53656        58.48497        -0.73168
C         56.21980        59.13927        -1.06559
C         57.43821        61.22603        -1.58566
C         56.21686        60.55052        -1.33764
C         58.79280        54.92032        -0.27002
C         59.99588        57.01220        -0.87279
C         58.78575        56.29820        -0.57254
C         60.00028        58.33532        -1.33962
C         58.69176        58.99726        -1.55345
C         59.96333        61.14472        -2.05721
C         58.66243        60.50498        -1.90186
C         61.17055        59.03671        -1.69127
C         61.13037        60.40805        -2.03032
O         40.27431        52.59489        -0.39202
O         38.35326        46.82198         1.99748
O         48.14112        54.89490         1.86999
O         53.82206        51.16760        -0.69824
O         44.56556        51.93131        -0.09357
O         48.08416        51.94104        -0.23453
O         44.50887        43.48726         2.43167
O         43.28020        45.92057         2.83564
O         46.37688        55.21078        -1.21709
O         45.90880        46.31629         0.26486
O         46.41251        51.90991         2.98095
O         40.41403        41.42621         0.49743
O         46.93018        48.17571         3.25443
O         54.92825        56.64427        -2.29909
O         58.40640        59.39306        -2.88031
O         44.05299        56.54356        -1.10591
O         39.39485        57.08228         2.61002
O         55.14164        53.74855         1.72285
O         44.11715        60.38473         1.02139
O         40.42908        50.29194         2.95103
O         51.68456        46.37976         3.52578
H         51.62072        45.43864         3.79564
O         47.54305        43.77705         3.14658
H         46.58375        43.73189         3.35874
O         42.33628        52.97392        -0.34349
H         42.65141        52.18245        -0.83055
O         41.90399        56.70669         2.99377
H         41.05472        56.74728         3.49842
O         40.71803        46.08277         3.02120
H         41.49216        46.22631         3.61137
O         43.88546        47.97078        -0.17661
H         44.12994        48.89232        -0.40622
O         32.37699        58.74601         1.76290
H         31.50536        58.30215         1.84232
O         52.33741        56.87950        -2.15756
H         53.26490        56.77171        -2.53976
O         54.07405        47.86666         3.29211
H         53.26699        47.39630         3.62335
O         34.16279        48.03991        -0.00763
H         34.24199        47.99932         0.96755
O         34.85128        57.31716         2.33984
H         34.01118        57.83246         2.42564
O         42.23764        39.31722         1.08768
H         41.35850        39.70538         1.29800
O         49.24099        51.37183         3.21165
H         48.38957        51.76362         3.52307
O         52.69934        58.43105         1.15659
H         52.60998        59.35431         1.47433
O         44.11272        42.94574        -1.15903
H         44.26775        42.24561        -1.82780
O         33.01163        62.87779        -0.66062
H         33.20103        62.68219        -1.60085
O         57.83910        58.92052         0.64256
H         57.17149        58.52241         1.24099
O         43.13576        54.30512         2.92245
H         42.81642        55.15905         3.30945
O         41.26674        52.69864         3.11505
H         40.84183        51.99295         3.65651
O         43.94349        34.77261        -0.28220
H         44.72667        34.24412        -0.01838
H         29.69056        56.76649        -1.35739
H         28.63852        58.87747        -1.98317
H         30.67163        62.62545        -1.24462
H         28.70060        61.36750        -2.14166
H         32.04693        52.50138        -0.85762
H         30.86406        54.63703        -1.07423
H         32.58941        61.90166         1.09553
H         35.25546        48.62234        -1.64436
H         33.26110        50.37116        -0.77146
H         35.37083        62.57951        -0.19480
H         37.27118        44.17994        -1.49487
H         35.83834        46.16561        -1.03627
H         37.84620        62.48648        -0.26029
H         40.21224        40.27387        -2.67132
H         38.58602        42.43881        -2.12526
H         40.23524        62.37011        -0.44149
H         42.22341        35.80064        -2.48830
H         41.16075        38.02894        -2.56990
H         42.37529        62.18707        -1.20740
H         45.73615        32.69972        -3.32181
H         43.50989        33.69408        -2.91932
H         45.17413        62.15980        -1.63416
H         47.79982        33.74190        -2.39862
H         48.94716        35.69468        -1.40899
H         47.57231        62.29235        -1.23853
H         50.09529        37.70765        -0.57916
H         51.24479        39.77095         0.02184
H         50.03523        62.30639        -1.27429
H         52.41484        41.84790         0.50441
H         53.57753        43.91806         0.72589
H         52.49983        62.31788        -1.27191
H         54.80954        45.98036         0.99845
H         56.17010        48.14954         1.53717
H         54.95179        62.31432        -1.54791
H         57.34267        50.13629         0.68057
H         58.54937        52.27617         0.21903
H         57.45462        62.32656        -1.59252
H         59.74965        54.37844        -0.24072
H         60.95008        56.46466        -0.82661
H         60.00528        62.24088        -2.13360
H         62.14428        58.53590        -1.59655
H         62.08510        60.92791        -2.19574
