         424
 CSIRO Nanostructure Databank - Neutral Graphene Oxide Data Set
C          2.23610         2.36201        -3.55954
C          2.11931         3.75520        -3.30725
C          3.14494         1.59281        -2.88936
C          3.05621         4.42881        -2.49788
C          1.90674         6.64258        -2.71928
C          1.80049         7.98281        -2.38307
C          3.00246         5.86599        -2.28507
C          2.80918         8.63339        -1.63533
C          1.36904        10.58680        -1.12754
C          1.18253        11.78817        -0.46582
C          2.64771         9.99018        -1.15074
C          2.30630        12.46477         0.04216
C          1.21884        15.52941        -0.33021
C          1.35075        16.71433        -1.05998
C          2.34140        14.76873         0.03328
C          2.62403        17.26092        -1.25252
C          2.82164        18.50549        -1.90344
C          3.99097         2.18227        -1.79912
C          4.10675         3.68425        -1.89166
C          5.33200         1.52701        -1.72051
C          5.20376         4.34479        -1.28886
C          4.05547         6.51255        -1.57212
C          3.97857         7.90867        -1.28991
C          5.18766         5.76420        -1.12580
C          5.05666         8.56190        -0.59785
C          3.76540        10.67822        -0.58002
C          3.61804        12.02339        -0.11546
C          4.97696         9.96554        -0.32478
C          4.78379        12.85878         0.43073
C          3.67919        15.12400        -0.26988
C          3.78046        16.55788        -0.65472
C          4.85760        14.32347        -0.09873
C          5.14032        17.15805        -0.87328
C          4.07743        19.04902        -2.11166
C          5.26087        18.39093        -1.67953
C          6.42624         2.18836        -1.20434
C          6.35251         3.60608        -0.85396
C          7.68401         1.52554        -1.07143
C          7.44313         4.26317        -0.25564
C          6.26709         6.41971        -0.46202
C          6.18535         7.80970        -0.20225
C          7.41947         5.66273        -0.04796
C          7.22784         8.46298         0.66167
C          6.11915        10.67655         0.18433
C          6.10046        12.10268         0.30019
C          7.31076         9.95257         0.44059
C          7.31358        12.78514         0.44532
C          6.13900        14.91021        -0.28616
C          6.30678        16.27205        -0.72864
C          7.36430        14.20700         0.10754
C          7.55224        16.86038        -0.93887
C          6.53475        18.90371        -1.89110
C          7.67798        18.21462        -1.39895
C          8.77029         2.12517        -0.43162
C          8.57376         3.43279         0.31431
C          9.99774         1.46336        -0.35505
C          9.86333         4.19605         0.50941
C          8.58878         6.35979         0.44939
C          8.55888         7.75002         0.64084
C          9.82303         5.63367         0.66182
C          9.74234         8.48338         0.96801
C          8.51622        10.63224         0.70473
C          8.54059        12.06166         0.64519
C          9.70747         9.89916         1.02973
C          9.77809        12.75208         0.80749
C          8.58883        14.83177         0.06821
C          8.81376        16.06692        -0.75320
C          9.72934        14.25119         0.85660
C          9.96624        16.91363        -0.27216
C          8.93043        18.87657        -1.32146
C         10.03163        18.29679        -0.66660
C         11.14179         2.07277         0.23911
C         11.06258         3.49488         0.60585
C         12.31392         1.36672         0.40187
C         12.29568         4.17604         0.88375
C         10.98950         6.34478         0.97056
C         10.99437         7.76877         1.09582
C         12.24843         5.61181         1.34655
C         12.22361         8.45503         1.25165
C         10.90051        10.65353         1.41536
C         10.96989        12.09713         1.13769
C         12.23849         9.88449         1.53291
C         12.23750        12.78676         1.22026
C         11.06263        14.91038         0.64046
C         11.05879        16.29363         0.32135
C         12.26453        14.21768         0.96202
C         12.23524        17.10833         0.78269
C         11.22783        19.04998        -0.43709
C         12.33686        18.49514         0.18724
C         13.50311         1.98924         1.07194
C         13.50733         3.48983         0.89091
C         14.79292         1.33829         0.68810
C         14.75003         4.18970         0.80121
C         13.48545         6.38466         0.98703
C         13.48188         7.77633         1.05464
C         14.69363         5.65772         0.62712
C         14.72700         8.52621         1.10898
C         13.49360        10.64471         1.41187
C         13.46187        12.08601         1.38109
C         14.69806         9.93619         1.33466
C         14.72947        12.79844         1.32809
C         13.50647        14.90145         0.92272
C         13.53476        16.35525         0.49889
C         14.73452        14.22110         1.11740
C         14.71945        17.08985         1.14704
C         13.57611        19.17869         0.30641
C         14.75489        18.55249         0.74243
C         15.97804         2.05181         0.60752
C         15.96639         3.51022         0.69942
C         17.22027         1.37745         0.42366
C         17.22436         4.22003         0.63112
C         16.00624         6.44314         0.60564
C         15.97741         7.85504         1.01370
C         17.25613         5.67721         0.73964
C         17.21785         8.52666         1.20892
C         15.96216        10.64892         1.74437
C         15.95898        12.11689         1.41496
C         17.24215         9.94217         1.39289
C         17.20321        12.80395         1.32952
C         15.98746        14.91339         1.09910
C         16.03766        16.39405         0.80188
C         17.20278        14.23155         1.20907
C         17.22680        17.10611         1.46805
C         15.99653        19.21519         0.76282
C         17.22338        18.55883         1.02053
C         18.44217         2.07647         0.40407
C         18.41607         3.51672         0.50453
C         19.68057         1.39290         0.33687
C         19.69452         4.29472         0.31528
C         18.43350         6.36145         0.94378
C         18.46186         7.79642         1.10045
C         19.69880         5.56584         1.15732
C         19.69265         8.46910         1.16866
C         18.44100        10.66145         1.38332
C         18.44897        12.09046         1.34139
C         19.73501         9.91881         1.58838
C         19.69310        12.80103         1.18993
C         18.47225        14.95589         1.14567
C         18.49856        16.35883         1.13586
C         19.69985        14.22331         1.08998
C         19.71434        17.07438         0.96701
C         18.44065        19.22493         0.90125
C         19.68813        18.54030         0.92887
C         20.93213         2.06667         0.44493
C         20.95429         3.49444         0.54206
C         22.15196         1.35719         0.49906
C         22.15968         4.18761         0.68831
C         20.96109         6.35681         0.92377
C         20.93690         7.76992         1.00603
C         22.16436         5.64043         0.79387
C         22.16510         8.50424         0.89116
C         20.95543        10.66173         1.11071
C         20.93076        12.07977         1.06866
C         22.13298         9.93415         0.84637
C         22.16375        12.82086         0.90352
C         20.93569        14.94910         0.91627
C         20.91630        16.37663         0.81457
C         22.15590        14.23970         0.84604
C         22.16284        17.13773         0.41845
C         20.88718        19.24933         0.90839
C         22.14498        18.58751         0.83786
C         23.39289         2.03483         0.59484
C         23.39880         3.47181         0.67609
C         24.62472         1.33733         0.60560
C         24.62980         4.17626         0.69767
C         23.40451         6.33881         0.82290
C         23.40608         7.77518         0.86269
C         24.63049         5.61648         0.77924
C         24.64212         8.44733         0.97347
C         23.37158        10.68323         0.59758
C         23.39603        12.13027         0.79316
C         24.68473         9.90073         0.78179
C         24.64949        12.83864         0.93661
C         23.44642        14.94808         0.47598
C         23.44526        16.42459         0.77941
C         24.65975        14.22060         0.97979
C         24.60144        17.11471         1.02310
C         23.33477        19.26844         0.98087
C         24.60475        18.58453         1.02852
C         25.86171         2.02277         0.61204
C         25.85848         3.46442         0.62239
C         27.09931         1.32698         0.60299
C         27.09474         4.17024         0.51398
C         25.86617         6.31067         0.83488
C         25.87808         7.73175         1.02865
C         27.09805         5.61737         0.62896
C         27.11447         8.41031         1.16785
C         25.83789        10.64661         1.33171
C         25.89190        12.11445         1.19632
C         27.13691         9.84300         1.49253
C         27.08782        12.78424         1.39754
C         25.82902        14.95848         1.58423
C         25.87962        16.42949         1.23994
C         27.14122        14.23281         1.39059
C         27.05217        17.11416         1.28818
C         25.77735        19.28127         1.10785
C         27.10456        18.62621         1.34226
C         28.32976         2.01355         0.49889
C         28.29605         3.44554         0.38870
C         29.58501         1.33837         0.44131
C         29.53912         4.14225         0.07715
C         28.30242         6.34631         0.61235
C         28.34675         7.73258         0.96819
C         29.53802         5.69232         0.19755
C         29.59861         8.41708         1.04465
C         28.37463        10.58112         1.40649
C         28.34853        12.02841         1.57531
C         29.67328         9.83910         1.56153
C         29.65003        12.78354         1.31701
C         28.33198        14.92301         1.29392
C         28.39185        16.42466         1.45424
C         29.57919        14.23302         1.03985
C         29.47208        17.06478         0.59868
C         28.20382        19.18292         0.48332
C         29.37345        18.44891         0.23003
C         30.82073         2.02677         0.33259
C         30.82119         3.45707         0.21181
C         32.07279         1.35389         0.27864
C         32.02126         4.19311         0.16654
C         30.81560         6.35564         0.42300
C         30.80733         7.74314         0.75827
C         32.01810         5.63871         0.25987
C         32.04936         8.46175         0.67264
C         30.84883        10.60163         0.99215
C         30.82151        12.00178         0.85382
C         32.03243         9.89648         0.67464
C         31.91074        12.67766         0.26650
C         30.67736        14.90293         0.53373
C         30.63299        16.33649         0.26510
C         31.78654        14.11259        -0.04916
C         31.74883        16.98885        -0.32208
C         30.49227        19.07697        -0.39516
C         31.69281        18.38198        -0.62028
C         33.28150         2.06047         0.13148
C         33.26951         3.49982         0.12092
C         34.53704         1.38990        -0.00564
C         34.48840         4.22579         0.03751
C         33.25752         6.34707         0.27984
C         33.24975         7.77245         0.39972
C         34.48498         5.65577         0.10434
C         34.47331         8.50098         0.23530
C         33.21082        10.60940         0.31485
C         33.14222        12.00810         0.05218
C         34.44692         9.91784         0.16954
C         34.32607        12.69899        -0.37770
C         32.92611        14.80006        -0.71918
C         33.08049        16.28108        -0.44267
C         34.17817        14.00515        -1.13092
C         34.01002        16.89218        -1.50401
C         32.87256        19.07057        -1.07757
C         34.06144        18.40205        -1.38372
C         35.72993         2.09406        -0.16843
C         35.72497         3.53633        -0.13238
C         36.98879         1.42169        -0.35636
C         36.92875         4.26580        -0.29032
C         35.71120         6.38342         0.00204
C         35.70027         7.81160         0.05141
C         36.93324         5.69186        -0.21511
C         36.92084         8.55063        -0.04996
C         35.65670        10.65368        -0.02057
C         35.57178        12.07080        -0.31160
C         36.88932         9.97515        -0.03654
C         36.77939        12.79933        -0.63925
C         35.43643        14.83381        -1.17380
C         35.36946        16.21559        -1.44266
C         36.70394        14.16505        -1.06745
C         36.53119        16.95330        -1.71728
C         35.25955        19.07841        -1.65733
C         36.49440        18.38538        -1.83766
C         38.15303         2.12144        -0.58935
C         38.15068         3.57354        -0.59812
C         39.43472         1.44442        -0.74967
C         39.31128         4.28974        -0.89610
C         38.15854         6.42786        -0.34780
C         38.14804         7.82898        -0.20801
C         39.37180         5.71403        -0.71612
C         39.41184         8.58360        -0.24551
C         38.15801        10.78772         0.08980
C         38.04782        12.18149        -0.49598
C         39.38947        10.05164        -0.38749
C         39.22337        12.88580        -0.77500
C         37.89338        14.86372        -1.37579
C         37.80328        16.21452        -2.03657
C         39.15842        14.23941        -1.23670
C         39.05021        17.03869        -1.87407
C         37.69261        19.09644        -2.03197
C         38.96768        18.45065        -1.99873
C         40.53999         2.11649        -1.12979
C         40.45597         3.56027        -1.56051
C         41.75528         4.30262        -1.46869
C         40.58762         6.38737        -0.92562
C         40.69137         7.83650        -0.64864
C         41.77976         5.63824        -1.24369
C         41.73932         8.66664        -1.25571
C         40.53429        10.74025        -0.69720
C         40.55880        12.24831        -0.44495
C         41.68774        10.02421        -1.20012
C         41.71416        12.97171        -1.07298
C         40.36368        14.96435        -1.52911
C         40.30699        16.39480        -1.75654
C         41.60847        14.25309        -1.51605
C         41.48023        17.19266        -1.78312
C         40.16388        19.21121        -2.03217
C         41.39968        18.57722        -1.93240
O          4.43084        17.37223         0.40174
O         29.22843        12.48749         2.69978
O         26.24556        10.19502         2.64990
O         24.22314        10.28065        -0.54388
O         29.44920         5.01369        -1.09763
O         31.79165        14.42551        -1.53679
O         11.45802        10.27370         2.71816
O         15.28356         6.14189        -0.63667
O          2.05173        13.62651         0.78732
O         40.39775         8.14916         0.75956
O         22.11833        17.17335        -1.06941
H         22.80152        17.81558        -1.36045
O         25.57286        14.94373         3.04032
H         25.54280        14.00403         3.32326
O         23.52134        14.85055        -0.99578
H         22.86009        15.49925        -1.34877
O         40.12091         3.52162        -3.00237
H         39.25858         3.06012        -3.08264
O         17.16009        17.07808         2.90979
H         16.21672        17.22153         3.16999
O          3.28294         1.89834        -0.51620
H          2.40402         2.33041        -0.57509
O          6.73027         8.31329         2.05151
H          7.36221         8.78337         2.63691
O         33.97721        13.58010        -2.51646
H         33.01045        13.67542        -2.69923
O          8.14374         3.05350         1.66921
H          7.28110         2.59395         1.58269
O         38.36583        10.98684         1.54176
H         38.54635        10.10477         1.93406
O          9.20621        15.57878        -2.09517
H          9.43273        16.36869        -2.63153
O         19.89100         9.86914         3.06860
H         18.99829         9.72256         3.45106
O         33.73971        16.37459         0.84899
H         33.81657        17.32400         1.08229
O         28.82044        16.63975         2.85474
H         28.21570        16.11364         3.42285
O          9.41027        14.56902         2.27306
H         10.03904        14.06655         2.83494
O         15.93460        10.58254         3.23205
H         15.09367        10.99675         3.52504
O         33.42375        16.58110        -2.79145
H         34.07059        16.82491        -3.48582
O         29.90038         9.74662         3.01844
H         29.80511        10.66722         3.36414
O         40.73808        12.38971         1.00278
H         39.94442        11.97682         1.43121
O         37.71503        15.92814        -3.50002
H         38.52290        15.42543        -3.74038
O         19.72234         4.71702        -1.08206
H         19.68671         3.91296        -1.64112
O         13.34857         1.76683         2.53050
H         12.59181         2.31730         2.82688
O         14.58030        16.99264         2.58421
H         13.66293        17.27664         2.82311
O         27.49415        18.99631         2.71675
H         28.19202        18.34833         2.99441
O         19.71409         5.15224         2.55463
H         19.77952         5.95835         3.10818
O         16.26123        16.52530        -0.63544
H         17.11216        16.08360        -0.84650
O         13.64107        16.37310        -0.94259
H         14.59250        16.25668        -1.18423
O         12.02885        17.26534         2.22377
H         11.14206        17.66267         2.35674
O          4.57107        12.98209         1.86673
H          3.68227        13.38665         1.99150
O         12.22960         5.52040         2.82828
H         11.32751         5.23660         3.09052
H          1.56996         1.90518        -4.30632
H          1.33033         4.31446        -3.82691
H          3.20769         0.51072        -3.07582
H          1.09441         6.17842        -3.29455
H          0.91184         8.53890        -2.71081
H          0.50056        10.06045        -1.54381
H          0.18236        12.21940        -0.33321
H          0.22413        15.14639        -0.06841
H          0.46034        17.24298        -1.42823
H          1.93410        19.04431        -2.26716
H          5.42751         0.47387        -2.02505
H          4.17355        20.00870        -2.63992
H          7.79806         0.51506        -1.49370
H          6.66282        19.88015        -2.38166
H         10.09440         0.45229        -0.77998
H          8.99840        19.92027        -1.66218
H         12.35283         0.30377         0.11884
H         11.28142        20.07713        -0.82989
H         14.81053         0.24293         0.58082
H         13.63101        20.22469        -0.03631
H         17.22368         0.27936         0.35599
H         16.02855        20.27861         0.47359
H         19.67514         0.29448         0.27436
H         18.44667        20.31085         0.71544
H         22.14068         0.25859         0.44314
H         20.86883        20.34610         1.00045
H         24.61909         0.23751         0.57497
H         23.32202        20.35539         1.15506
H         27.09557         0.22758         0.64709
H         25.75405        20.38196         1.11035
H         29.59381         0.23917         0.48897
H         28.17464        20.25045         0.21641
H         32.09372         0.25482         0.32797
H         30.42673        20.14466        -0.65110
H         34.55364         0.28947        -0.01181
H         32.84717        20.17024        -1.12149
H         37.00925         0.32155        -0.32950
H         35.26780        20.17920        -1.65530
H         39.48077         0.36728        -0.52739
H         37.65787        20.19295        -2.11369
H         41.49935         1.59074        -1.24981
H         42.68696         3.75406        -1.67121
H         42.74342         6.16868        -1.23870
H         42.57003         8.17531        -1.78299
H         42.51691        10.60094        -1.63364
H         42.70771        12.50355        -1.03331
H         42.51422        14.76319        -1.87497
H         42.46796        16.72634        -1.67110
H         40.10667        20.30450        -2.13182
H         42.32271        19.17349        -1.95425
