         261
 CSIRO Nanostructure Databank - Neutral Graphene Oxide Data Set
C        -11.02006         0.70910         1.29479
C        -10.05426         1.47735         0.47676
C         -8.97702         0.67702        -0.28033
C         -7.66289         1.41147        -0.52406
C         -6.36941         0.73300        -0.18396
C         -5.12224         1.54021         0.06053
C         -3.83679         0.81560         0.34124
C         -2.58312         1.44012        -0.30077
C         -1.31753         0.74909         0.18785
C         -0.03064         1.45624         0.38302
C          1.27072         0.75604         0.13912
C          2.47723         1.34934         0.83990
C          3.73378         0.72630         0.23293
C          4.97396         1.50614        -0.02354
C          6.32404         0.79644        -0.17259
C          7.50878         1.44998         0.53743
C          8.80333         0.69751         0.49359
C          9.98805         1.52340         0.00032
C         11.25263         0.70505        -0.10942
C         -9.78686         2.87211         0.79250
C         -8.86152         3.67844         0.01338
C         -7.68772         2.93011        -0.63331
C         -6.35899         3.66165        -0.82042
C         -5.07896         2.93730        -0.51924
C         -3.81147         3.72537        -0.23662
C         -2.53551         2.95956        -0.13217
C         -1.32708         3.61304         0.47505
C          0.00431         2.94441         0.27186
C          1.26076         3.65947         0.65429
C          2.51565         2.88318         0.95398
C          3.79372         3.65122         0.83192
C          4.93809         3.05615        -0.01035
C          6.24821         3.72505         0.40222
C          7.52084         2.96389         0.58115
C          8.81445         3.69968         0.53743
C         10.08867         2.88113         0.74907
C         -8.79462         5.17167         0.08504
C         -7.66506         5.81511        -0.27360
C         -6.37209         5.17769        -0.69824
C         -5.20080         5.84132         0.06997
C         -3.92309         5.11267         0.34535
C         -2.62568         5.88511         0.55180
C         -1.34473         5.09189         0.63733
C         -0.03234         5.78614         0.38735
C          1.20149         5.13401         0.97338
C          2.48090         5.90878         1.09754
C          3.80333         5.16881         1.01177
C          5.09799         5.90986         0.87411
C          6.26636         5.24040         0.10043
C          7.61509         5.88765         0.38246
C          8.81776         5.06060         0.46287
C         -7.35500         6.94972        -1.23042
C         -6.34111         7.97502        -0.74798
C         -5.17502         7.35899        -0.01554
C         -3.84798         8.08176        -0.07443
C         -2.56357         7.35458         0.26617
C         -1.29786         7.94325        -0.37817
C         -0.00292         7.18046        -0.13704
C          1.22966         8.01682         0.15366
C          2.45677         7.39907         0.78162
C          3.77623         8.15124         0.70531
C          5.09781         7.42015         0.82312
C          6.39946         8.08031         0.43944
C          7.64420         7.24903         0.36005
C         -6.09279         9.15651        -1.61042
C         -4.87192         9.70535        -1.77541
C         -3.69588         9.26737        -0.99038
C         -2.28079         9.44555        -1.51208
C         -1.16506         9.44776        -0.47708
C          0.02794        10.06796        -0.66546
C          1.32412         9.25755        -0.72407
C          2.61791        10.01548        -0.66092
C          3.81396         9.54144        -0.00903
C          5.13447        10.01659        -0.49245
C          6.30082         9.37269        -0.27756
C        -10.98480        -0.64273         1.41082
C         -9.96725        -1.47327         0.80523
C         -8.96481        -0.85614        -0.16354
C         -7.63659        -1.46291         0.20644
C         -6.38314        -0.69585         0.26966
C         -5.09898        -1.46880         0.30443
C         -3.82830        -0.69622         0.51096
C         -2.51204        -1.43310         0.40435
C         -1.29916        -0.71631        -0.09762
C         -0.00817        -1.45413        -0.22225
C          1.29914        -0.71465        -0.12760
C          2.55849        -1.50990         0.13721
C          3.77921        -0.74336         0.54667
C          5.07614        -1.46472         0.62226
C          6.26575        -0.75358         0.03782
C          7.54388        -1.50121        -0.01930
C          8.84680        -0.82314         0.32565
C         10.02332        -1.41655        -0.39696
C         11.23322        -0.61224        -0.43475
C         -9.83625        -2.81056         1.11547
C         -8.74565        -3.63782         0.63285
C         -7.74887        -2.90885        -0.23453
C         -6.41416        -3.64507        -0.63214
C         -5.08878        -2.90400        -0.18366
C         -3.81309        -3.64500         0.08533
C         -2.52851        -2.91522         0.38616
C         -1.33446        -3.62317        -0.24602
C         -0.04012        -2.90611         0.15289
C          1.22044        -3.67011         0.40503
C          2.56430        -2.99238         0.28274
C          3.75000        -3.72758         0.92304
C          5.12535        -2.98239         0.79194
C          6.45258        -3.71356         0.70023
C          7.74598        -2.91762         0.46703
C          8.80762        -3.58193        -0.39191
C          9.96183        -2.75736        -0.70690
C         -8.70713        -5.00390         0.76804
C         -7.62103        -5.83876         0.29869
C         -6.34532        -5.25343        -0.31505
C         -5.14383        -5.80590         0.55879
C         -3.84427        -5.08464         0.51538
C         -2.52439        -5.82300         0.55777
C         -1.29323        -5.06517         0.20674
C         -0.08695        -5.76497        -0.32212
C          1.20273        -5.15337         0.16826
C          2.50839        -5.84146        -0.01519
C          3.82754        -5.18288         0.37784
C          5.12507        -5.87355         0.08120
C          6.49883        -5.25082         0.48958
C          7.62679        -5.77358        -0.37742
C          8.76795        -4.92990        -0.66096
C         -7.65188        -7.20206         0.36372
C         -6.39820        -8.01624         0.25923
C         -5.11525        -7.32740         0.60500
C         -3.80003        -8.06090         0.39505
C         -2.49811        -7.32424         0.37852
C         -1.40804        -7.97098        -0.50423
C         -0.11720        -7.20422        -0.68722
C          1.21836        -7.90678        -0.31661
C          2.44197        -7.10556        -0.90186
C          3.79653        -7.82472        -1.01585
C          5.10380        -7.11575        -0.78248
C          6.38626        -7.98910        -0.79174
C          7.62288        -7.11756        -0.66180
C         -6.29059        -9.23626        -0.57891
C         -5.11591        -9.81458        -0.88988
C         -3.80291        -9.47917        -0.21542
C         -2.54195        -9.63064        -1.12702
C         -1.22246        -9.46020        -0.39528
C         -0.02865       -10.09444        -0.58031
C          1.26360        -9.39972        -0.57575
C          2.46299       -10.01705        -0.75115
C          3.82390        -9.36892        -0.99131
C          4.89777        -9.79600         0.01613
C          6.07461        -9.15433         0.14149
O          4.51697        -7.13510        -2.11133
O         -2.91252        -8.04479         1.56905
O         -4.68370        -5.15315         1.74374
O          8.12992         0.97281         1.76402
O          3.72629         9.35664         1.46116
O          0.87715         3.45048        -0.76131
O          2.84995        -2.41684        -1.01089
O          4.40899        -6.11124         1.33562
O          8.41331        -2.70313         1.76292
O         -4.93889         5.24958         1.37390
O          6.90058        -5.85091         1.68680
O          6.75927        -1.38571        -1.21188
O          4.69859         5.42423         2.16231
O          4.44071        -0.92832         1.82955
O          0.17897         6.06540        -1.04607
O         -2.25686        -2.23454         1.61699
O         -1.40924         4.20420         1.79807
O         -2.89073         3.66515        -1.37099
O          1.47086         0.26717        -1.20080
O         -0.83925         1.03692         1.52930
O         -6.82912         0.81882        -1.56886
O          5.90128        -3.32905         1.97860
O         -7.15600        -1.02425         1.49109
O         -4.53029         1.53074         1.39359
O         -1.60316        -5.33247         1.58874
O         -2.58325         6.87905         1.62900
O         -5.86144        -8.02777         1.64497
O          9.00703        -1.35072         1.72018
O         -9.20754        -1.42390        -1.48903
O          1.78520        -5.97521         1.24758
O          0.40475        -3.18588         1.50580
O         -6.22424         8.07118         0.69850
O         -4.13836        -3.21273        -1.26498
O         -1.77163         8.05918        -1.83318
O          6.66939         3.40123         1.73239
O          1.48118         8.15791         1.56535
O         -8.51309        -2.73003        -1.51002
O         -6.09998        -5.90376        -1.51541
O          3.34282         3.14082         2.12532
O         -5.53748         3.10674        -1.88365
O         -2.21956        -8.31055        -1.74812
O         -8.77971         3.35889        -1.45435
O          4.08207         1.05343        -1.11762
O         -4.54576        -1.23345         1.64285
O         -0.15005        -6.17701        -1.70785
O          1.28985        -7.84772         1.08554
O         -3.84043         9.43421         0.45440
O          1.66532         5.55576         2.26397
O          5.91885         8.06580         1.83294
O        -10.10069         1.18705        -0.99007
O         -6.51320         5.95269        -1.97244
O          6.03620         5.48960        -1.26142
O         -0.80289        -1.12182        -1.40689
O          4.23516        -9.85523        -2.29810
H          3.66357        -9.43555        -2.97505
O         -6.39117        -3.54113        -2.04510
H         -6.16410        -4.45017        -2.38910
O          2.10096        -6.71426        -2.22348
H          2.93435        -6.56960        -2.73098
O          6.69187         1.03038        -1.54590
H          5.89569         0.87206        -2.10176
O          2.34792         0.83772         2.17887
H          2.92163         1.37235         2.77604
O          3.42208        -3.80880         2.30139
H          4.22116        -4.13045         2.78008
O          4.60186         3.41978        -1.35348
H          5.13401         4.22578        -1.63762
O          9.62273         1.85121        -1.37527
H         10.42825         2.12809        -1.85938
O         -1.46441        -3.67328        -1.66643
H         -1.46678        -2.75476        -2.02768
O          6.59206        -8.54840        -2.10291
H          5.82493        -9.13413        -2.32924
O         10.29581         2.67376         2.14303
H          9.50740         2.20196         2.50089
O          1.29877         8.77487        -2.11051
H          0.42623         8.34950        -2.28321
O         -3.65134       -10.43905         0.84978
H         -3.29862        -9.95540         1.63249
O         -2.68591         1.12198        -1.69740
H         -2.89848         1.94901        -2.19369
H         12.18046        -1.12947        -0.65379
H         12.21368         1.24251        -0.08810
H         10.97001         3.45206         0.35714
H          9.78312         5.59261         0.48918
H          8.60008         7.78627         0.47210
H          7.22452         9.78355        -0.71214
H          5.13189        10.93953        -1.09240
H          2.76246        10.72665        -1.49141
H          0.04531        11.06055        -1.14419
H         -2.18892        10.13608        -2.38028
H         -4.73007        10.51735        -2.50462
H         -6.93185         9.50955        -2.22952
H         -8.18550         7.35893        -1.84898
H         -9.75356         5.71025         0.13962
H        -10.24024         3.30881         1.69365
H        -11.78264         1.28321         1.84044
H        -11.72666        -1.14179         2.05244
H        -10.58188        -3.27773         1.77832
H         -9.53198        -5.50969         1.29621
H         -8.55174        -7.72033         0.73412
H         -7.21188        -9.59432        -1.06322
H         -5.10968       -10.68319        -1.56701
H         -2.62172       -10.45057        -1.87708
H         -0.01555       -11.16954        -0.82004
H          2.46456       -11.11074        -0.88976
H          4.67779       -10.66790         0.65052
H          6.82087        -9.49981         0.87217
H          8.50445        -7.52609        -1.18363
H          9.62378        -5.39788        -1.17333
H         10.82654        -3.24556        -1.18278
