         630
 CSIRO Nanostructure Databank - Neutral Graphene Oxide Data Set
C         23.61804        27.95087        -3.69960
C         23.43556        29.17221        -3.14123
C         23.17446        31.84088        -1.67700
C         23.15425        33.23228        -1.42055
C         23.11377        36.11780        -0.89592
C         23.10264        37.47594        -0.67914
C         23.06996        40.35794        -0.18283
C         23.05553        41.70906         0.11779
C         23.00997        44.46849         1.20716
C         22.98812        45.83263         1.48018
C         26.15628        25.20151        -3.97365
C         24.98386        25.91536        -4.11989
C         25.87316        27.67994        -2.69849
C         24.81372        27.16314        -3.47060
C         25.64642        28.89910        -1.90098
C         24.36961        29.68582        -2.12250
C         25.66746        31.86571        -1.72620
C         24.35033        31.13419        -1.77275
C         25.58951        33.27346        -1.18351
C         24.33859        33.96049        -1.17203
C         25.54619        36.06627        -0.60971
C         24.32384        35.37648        -0.88225
C         25.54646        37.49093        -0.43869
C         24.30740        38.21048        -0.46946
C         25.55553        40.41312        -0.31970
C         24.27390        39.62267        -0.26966
C         25.46775        41.72902         0.41018
C         24.25883        42.39800         0.50269
C         25.44752        44.52044         1.03579
C         24.21737        43.78960         0.95851
C         25.42503        45.93118         1.25608
C         24.18226        46.59252         1.48014
C         25.35816        48.72477         1.66152
C         24.18350        48.00185         1.69520
C         28.59011        23.62824        -3.50638
C         28.48119        24.97625        -3.07273
C         27.25081        25.72361        -3.23489
C         28.25919        27.61384        -1.97271
C         27.12085        27.00275        -2.62769
C         28.16625        28.91376        -1.39623
C         26.84303        29.58288        -1.29491
C         28.04674        31.80482        -0.82068
C         26.79551        31.06663        -1.09763
C         28.00908        33.15563        -0.62513
C         26.77192        33.92358        -0.78815
C         28.00202        36.01634        -0.22575
C         26.76061        35.32202        -0.50039
C         27.99556        37.46230        -0.10355
C         26.78648        38.18698        -0.19893
C         27.98126        40.29109         0.26375
C         26.79787        39.61352        -0.01636
C         27.98983        41.71805         0.54095
C         26.70241        42.34961         1.00052
C         27.89817        44.57998         0.84412
C         26.69262        43.85181         0.89562
C         27.85839        45.99825         0.96378
C         26.64261        46.67727         1.24156
C         27.85092        48.85188         1.43205
C         26.61458        48.10251         1.42849
C         27.85294        50.30222         1.43252
C         30.87612        23.46698        -2.66210
C         29.72997        22.89029        -3.27057
C         30.83535        24.86101        -2.32036
C         29.60268        25.58444        -2.45133
C         30.64689        27.56208        -1.37273
C         29.50427        26.92670        -1.94383
C         30.57064        28.91972        -0.96308
C         29.31573        29.58578        -0.95987
C         30.53069        31.75739        -0.69637
C         29.24281        30.98842        -0.37260
C         30.50117        33.16943        -0.19354
C         29.17247        33.82380         0.07479
C         30.50557        36.02957        -0.17476
C         29.18966        35.31452        -0.09158
C         30.43692        37.44386         0.32160
C         29.22441        38.14330         0.20486
C         30.43210        40.25519         0.56720
C         29.22833        39.57150         0.35899
C         30.48004        41.73751         0.30856
C         29.16690        42.42797         0.61013
C         30.38176        44.55915         0.86711
C         29.16994        43.87185         0.77217
C         30.42671        46.02852         0.78205
C         29.08083        46.78492         0.80531
C         30.33821        48.87055         1.45629
C         29.07063        48.18593         1.24529
C         30.31187        50.42974         1.48288
C         28.98843        51.03975         1.31209
C         33.02152        20.48847        -1.81959
C         31.92323        21.24522        -2.20499
C         33.28330        23.27135        -1.99248
C         31.99938        22.64714        -2.30115
C         33.26138        24.82622        -1.72768
C         31.96774        25.50868        -1.74956
C         33.03450        27.46346        -0.68285
C         31.88282        26.83384        -1.25015
C         32.98012        28.86410        -0.33259
C         31.77440        29.60099        -0.52052
C         32.92410        31.67334         0.15340
C         31.76620        30.99218        -0.29092
C         32.91373        33.09678         0.33855
C         31.68583        33.83105         0.14947
C         32.84528        35.92607         0.73356
C         31.68584        35.24953         0.32941
C         32.80350        37.34642         0.95958
C         31.62286        38.09897         0.75693
C         32.79013        40.25292         1.27700
C         31.62405        39.54366         0.88639
C         32.79310        41.68335         1.31622
C         31.66767        42.41319         0.94913
C         32.81819        44.57714         1.19993
C         31.63655        43.86012         1.02571
C         32.85011        46.01128         1.27987
C         31.65124        46.74449         1.14044
C         32.81680        48.90058         1.35854
C         31.64356        48.18688         1.24122
C         32.85082        50.41004         1.51885
C         31.56357        51.09986         1.12514
C         32.79985        53.04899         0.35253
C         31.59454        52.39082         0.60638
C         35.38759        18.87789        -1.08838
C         35.33219        20.25663        -0.90847
C         34.23432        21.08095        -1.37757
C         35.49905        23.16395        -0.80360
C         34.36194        22.49343        -1.37443
C         35.52396        24.59275        -0.64947
C         34.36213        25.38937        -0.95072
C         35.45963        27.42114        -0.08403
C         34.23983        26.72031        -0.52524
C         35.29804        28.74806         0.56635
C         34.11284        29.53887         0.19570
C         35.32436        31.61720         0.83588
C         34.11290        30.92660         0.43502
C         35.31542        33.04724         0.93200
C         34.08967        33.78241         0.74163
C         35.28269        35.89422         1.24953
C         34.06589        35.19170         0.95077
C         35.28122        37.29962         1.44508
C         33.98130        37.99525         1.53786
C         35.29826        40.19548         1.85898
C         33.96660        39.49877         1.74548
C         35.29841        41.69529         1.93555
C         33.95684        42.45501         1.95269
C         35.28982        44.58641         1.67682
C         34.10194        43.78836         1.19343
C         35.31893        46.03916         1.45295
C         34.09124        46.70928         1.41075
C         35.34177        48.83693         1.11873
C         34.10503        48.18661         1.67402
C         35.26104        50.18602         0.48069
C         34.06289        51.01749         0.85419
C         35.28314        52.99295         0.02482
C         34.04233        52.34237         0.41108
C         35.29525        54.30327        -0.57415
C         37.72860        18.68140        -0.36482
C         36.54704        18.11119        -0.82971
C         37.68968        20.06879         0.10178
C         36.42357        20.91942        -0.18947
C         37.69629        23.00980         0.32372
C         36.55893        22.39510        -0.22966
C         37.75964        24.42943         0.37238
C         36.67217        25.19572        -0.05692
C         37.87495        27.30949         0.83672
C         36.73894        26.66377         0.10912
C         37.83289        28.71125         1.03248
C         36.54222        29.43968         1.04289
C         37.75150        31.59447         1.29933
C         36.52862        30.91159         1.06076
C         37.73813        33.02213         1.37208
C         36.51589        33.74380         1.21223
C         37.72918        35.90263         1.47691
C         36.51672        35.18001         1.33238
C         37.72075        37.30992         1.39027
C         36.49685        38.02123         1.44875
C         37.71296        40.17182         1.18734
C         36.53563        39.47335         1.45460
C         37.66955        41.64295         1.02683
C         36.51770        42.38994         1.48958
C         37.83800        44.57836         1.37425
C         36.60325        43.82882         1.64853
C         37.80889        46.01089         1.35083
C         36.56585        46.72270         1.40190
C         37.80021        48.83570         0.92600
C         36.54605        48.14350         1.13255
C         37.77757        50.26850         0.68032
C         36.56569        50.94209         0.53836
C         37.75602        53.04797         0.05872
C         36.52862        52.34219         0.23798
C         37.70887        54.55482        -0.02537
C         36.43995        55.02166        -0.69365
C         40.26780        15.90294        -0.34647
C         39.07136        16.58008        -0.45514
C         40.19451        18.71881        -0.01610
C         38.99617        17.99003        -0.28883
C         40.15141        20.14124         0.32675
C         38.94460        20.78580         0.36539
C         40.07618        22.89218         1.22228
C         38.77709        22.14838         0.97352
C         39.87038        24.18344         1.59253
C         39.07107        25.11147         0.71605
C         40.25686        27.30758         1.42261
C         39.05339        26.58859         1.10558
C         40.25891        28.73791         1.42755
C         39.01879        29.42831         1.29400
C         40.18279        31.55139         1.72901
C         38.98405        30.86061         1.42729
C         40.01640        32.90828         2.11533
C         38.92241        33.70264         1.77843
C         40.32638        35.92309         1.53493
C         38.99238        35.18424         1.78867
C         40.21999        37.25444         0.83999
C         38.94030        38.02769         0.94356
C         40.18070        40.22469         0.82670
C         38.97331        39.51277         0.93995
C         40.25634        41.66293         0.91146
C         38.99458        42.42203         0.86062
C         40.26515        44.56607         1.03593
C         39.02055        43.87547         1.12743
C         40.27582        45.99299         1.08866
C         39.03443        46.72243         1.17993
C         40.26558        48.95573         1.25465
C         39.00815        48.14568         1.03615
C         40.25080        50.29369         0.52984
C         39.02440        50.96609         0.43771
C         40.19582        53.03055        -0.29822
C         38.97789        52.36093         0.07502
C         40.15510        54.41270        -0.69810
C         38.96149        55.17003        -0.60240
C         40.11451        57.14049        -1.44676
C         38.96596        56.52663        -0.95061
C         42.74658        15.96045        -0.13276
C         41.48256        16.61968        -0.16664
C         42.68832        18.79088        -0.06875
C         41.42701        18.03098        -0.03600
C         42.68461        20.24185         0.35702
C         41.39553        20.80045         0.86143
C         42.77184        22.96649         1.65381
C         41.37990        22.19388         1.44119
C         42.78462        24.49295         1.42034
C         41.70998        25.28699         1.83012
C         42.75986        27.37475         1.40668
C         41.55084        26.65755         1.53569
C         42.73674        28.81001         1.42266
C         41.49201        29.49731         1.49586
C         42.73382        31.65187         1.40507
C         41.49030        30.92418         1.61377
C         42.85763        33.09054         1.34496
C         41.85228        33.94682         1.83926
C         42.77786        35.92002         0.84502
C         41.62025        35.23299         1.34715
C         42.75850        37.30850         0.72298
C         41.48497        38.01207         0.56614
C         42.75175        40.23401         0.70777
C         41.45948        39.51867         0.56235
C         42.73795        41.65111         0.80535
C         41.47252        42.36494         0.91572
C         42.70173        44.53242         0.83295
C         41.49022        43.82491         0.93248
C         42.71509        45.95759         0.75633
C         41.51477        46.68018         0.95369
C         42.79431        48.85050         0.55897
C         41.55679        48.15485         1.07093
C         42.69516        50.24405         0.06737
C         41.46069        50.93908         0.11142
C         42.59618        52.93788        -0.85029
C         41.40846        52.30774        -0.34668
C         42.55481        54.29471        -1.29736
C         41.34039        55.03499        -1.19578
C         42.49174        57.01259        -2.11662
C         41.30420        56.40638        -1.59116
C         43.94085        16.67199        -0.06482
C         45.18233        18.85713        -0.10248
C         43.96744        18.07789        -0.07128
C         45.19002        20.26114         0.17721
C         43.96788        20.94848         0.60031
C         45.14020        23.06947         0.40678
C         43.95137        22.28332         0.94029
C         45.20870        24.55410         0.72850
C         43.95102        25.23287         1.08847
C         45.23334        27.33335         1.52924
C         43.96493        26.63230         1.28938
C         45.23776        28.85896         1.48665
C         43.94327        29.53571         1.26826
C         45.15112        31.55385         0.49657
C         43.92473        30.92113         1.11971
C         45.20089        33.04068         0.61338
C         44.03053        33.76084         0.81522
C         45.17671        35.91788         0.26456
C         44.01554        35.19811         0.67265
C         45.21758        37.31966         0.34675
C         44.03520        38.05046         0.92995
C         45.19944        40.21730         0.55571
C         43.97014        39.52899         0.64680
C         45.18378        41.64347         0.59898
C         43.96694        42.34180         0.76924
C         45.17881        44.50049         0.34599
C         44.01794        43.82255         1.03469
C         45.15585        45.88264         0.13810
C         43.95091        46.64841         0.39292
C         45.13116        48.71347        -0.28953
C         43.95250        48.02540         0.16183
C         45.07810        50.10302        -0.59979
C         43.85498        50.84586        -0.49056
C         44.97192        52.81070        -1.52357
C         43.80985        52.20459        -0.93331
C         44.90866        54.15700        -2.02002
C         43.71980        54.91218        -1.86033
C         43.64278        56.29124        -2.25841
C         47.59570        18.91063        -0.47203
C         46.39909        18.21477        -0.43723
C         47.63701        20.27258        -0.13623
C         46.43941        20.95223         0.16964
C         47.67725        23.03284         0.70949
C         46.47814        22.36426         0.51518
C         47.67256        24.36353         1.46682
C         46.51534        25.24112         1.04188
C         47.72848        27.40778         1.68392
C         46.49577        26.63594         1.48622
C         47.74334        28.84669         1.32328
C         46.51179        29.55147         1.18506
C         47.70564        31.60996         0.60929
C         46.47982        30.89570         0.81626
C         47.70303        32.99117         0.26119
C         46.40800        33.68860         0.08278
C         47.67555        35.91148        -0.46536
C         46.36928        35.16365        -0.19887
C         47.65629        37.35547        -0.01200
C         46.44213        38.04867         0.19205
C         47.66461        40.17124         0.27552
C         46.44749        39.48181         0.36678
C         47.71846        41.64810         0.58299
C         46.41237        42.37871         0.40212
C         47.55829        44.40777        -0.50332
C         46.38056        43.74514         0.16801
C         47.59589        45.90264        -0.34407
C         46.38100        46.58788        -0.21387
C         47.57946        48.71485        -0.64854
C         46.35409        48.00601        -0.40063
C         47.51591        50.08770        -0.99689
C         46.26350        50.75147        -1.07705
C         47.30136        52.60967        -2.39721
C         46.17151        52.07355        -1.61468
C         47.17586        53.96682        -2.93411
C         46.05603        54.69783        -2.71185
C         50.14995        20.23602         0.15577
C         48.93486        21.03024        -0.26927
C         50.15075        23.02937         0.53715
C         48.93222        22.38560         0.41097
C         50.24393        24.42607         1.02534
C         49.01141        25.12024         1.49379
C         50.23739        27.36264         1.15530
C         49.03993        26.63200         1.60505
C         50.21837        28.76501         1.01833
C         48.96765        29.50670         1.07232
C         50.17083        31.62548         0.56493
C         48.95199        30.91049         0.75768
C         50.15943        33.03534         0.34953
C         48.91172        33.73568         0.18839
C         50.12699        35.87440         0.02480
C         48.91596        35.15520        -0.00675
C         50.12881        37.31910        -0.04838
C         48.88852        38.04674        -0.00008
C         50.13104        40.18610        -0.03039
C         48.89117        39.47333         0.10520
C         50.13067        41.61473        -0.14231
C         48.91137        42.34524        -0.02027
C         50.07609        44.43835        -0.51001
C         48.86915        43.70958        -0.27086
C         50.06504        45.86154        -0.52940
C         48.83883        46.60885        -0.46723
C         50.08254        48.86642        -0.40327
C         48.82585        48.02389        -0.56582
C         50.05284        50.13925        -1.21197
C         48.76697        50.92756        -1.12088
C         49.91655        52.65958        -2.56145
C         48.65717        51.96165        -2.22467
C         51.32328        20.86321         0.36377
C         52.59794        23.01190         0.20014
C         51.39908        22.32009         0.33546
C         52.57126        24.51107        -0.02217
C         51.43223        25.23069         0.67270
C         52.69989        27.34990         0.77410
C         51.42257        26.59899         0.82206
C         52.67887        28.81139         0.61945
C         51.43658        29.49741         0.71620
C         52.64731        31.63004         0.41834
C         51.42008        30.91217         0.57571
C         52.63666        33.05347         0.30725
C         51.38901        33.75837         0.26422
C         52.60916        35.89997         0.07690
C         51.37775        35.17566         0.13473
C         52.60137        37.32123        -0.04432
C         51.35182        38.02983        -0.07056
C         52.58396        40.16925        -0.31700
C         51.34955        39.46375        -0.14208
C         52.57675        41.57377        -0.56314
C         51.32769        42.30532        -0.50430
C         52.48200        44.42038        -1.15164
C         51.28899        43.70631        -0.67260
C         52.56076        45.86885        -1.00485
C         51.35611        46.57444        -0.54838
C         52.56486        48.73093        -1.17075
C         51.38276        48.08517        -0.56227
C         52.49372        50.07154        -1.61210
C         51.19204        50.74970        -1.66991
C         51.10038        52.07446        -2.28703
C         55.01443        23.01631        -0.22103
C         53.84645        22.33553        -0.01099
C         55.07453        24.45583        -0.11350
C         53.92387        25.16462         0.12914
C         55.13953        27.40362         0.05057
C         53.97080        26.61115         0.43524
C         55.13881        28.78426         0.21142
C         53.89413        29.50179         0.43003
C         55.11977        31.64544         0.24969
C         53.89071        30.92833         0.36766
C         55.10986        33.06528         0.21561
C         53.86445        33.77122         0.22005
C         55.08414        35.91724         0.06264
C         53.85423        35.19742         0.12326
C         55.07390        37.33939        -0.05391
C         53.83090        38.03828        -0.11629
C         55.05440        40.17280        -0.38355
C         53.82403        39.46232        -0.27926
C         55.04532        41.58066        -0.62066
C         53.80550        42.24514        -0.77737
C         55.05141        44.42363        -1.13658
C         53.81168        43.64798        -1.20414
C         55.01520        45.82318        -1.27913
C         53.76486        46.54791        -1.18340
C         54.97713        48.67216        -1.63485
C         53.77395        47.99594        -1.28704
C         54.90289        50.03795        -1.97722
C         53.68645        50.70485        -2.01848
C         57.66372        24.51658        -0.09356
C         56.36924        25.16613        -0.34364
C         57.63708        27.40023        -0.15191
C         56.36497        26.69039        -0.34016
C         57.62411        28.81301         0.00344
C         56.37723        29.52348         0.09855
C         57.60763        31.65475         0.15923
C         56.36795        30.93094         0.17232
C         57.59224        33.08456         0.17683
C         56.34401        33.79209         0.16630
C         57.56498        35.93876         0.08186
C         56.33055        35.21043         0.10721
C         57.55356        37.36500        -0.02575
C         56.30736        38.06540        -0.11657
C         57.53299        40.20488        -0.36432
C         56.30027        39.47690        -0.28252
C         57.52444        41.62228        -0.58647
C         56.28245        42.31030        -0.73756
C         57.51233        44.44078        -1.04415
C         56.28026        43.71796        -0.96026
C         57.48838        45.84993        -1.28712
C         56.24929        46.55346        -1.38221
C         57.48055        48.63413        -1.74268
C         56.24385        47.95676        -1.60088
C         58.81994        25.22973        -0.09349
C         60.06641        27.39130        -0.06374
C         58.84264        26.67614        -0.15094
C         60.07170        28.76858         0.01534
C         58.86176        29.51514         0.05966
C         60.05349        31.70292         0.17939
C         58.84658        30.95440         0.13800
C         60.03944        33.07791         0.20658
C         58.81840        33.80488         0.18727
C         60.00960        35.99525         0.16397
C         58.80391        35.24384         0.15275
C         59.99771        37.36690         0.06441
C         58.77906        38.08719        -0.05648
C         59.97815        40.26364        -0.29206
C         58.76906        39.51680        -0.22935
C         59.97144        41.62224        -0.50268
C         58.75552        42.34084        -0.66769
C         59.96328        44.50698        -1.03693
C         58.75338        43.75839        -0.91101
C         59.94683        45.85815        -1.28400
C         58.71466        46.56432        -1.41118
C         58.68415        47.95995        -1.65056
O         38.16562        42.08666        -0.30033
O         33.69805        24.24897        -2.99240
O         41.33375        21.00981         2.32468
O         36.48586        27.41125        -1.14724
O         35.59217        28.79657         1.99911
O         36.67037        20.32702         1.11924
O         51.66838        47.37086         0.69041
O         33.70800        38.59899         2.86900
O         47.84257        51.59740        -3.36577
O         53.01669        43.90117        -2.41324
O         41.42616        38.75534        -0.70613
O         40.68884        24.71446         2.57378
O         46.01427        25.18370        -0.35186
O         49.91283        24.51902         2.48418
O         42.56319        48.65590         2.02104
O         53.59522        26.88610         1.85535
O         56.30162        25.92834        -1.60633
O         24.52227        28.77751        -0.96886
O         41.04153        33.47138         2.87227
O         42.60336        19.90302        -1.06199
O         35.89157        44.21070         2.92383
O         26.51868        30.16352         0.02384
O         46.11869        34.21367        -1.30646
O         39.73668        35.85202         2.86700
O         48.51585        27.08795         2.89276
O         35.47672        40.88294         3.15790
O         30.39050        49.63779         2.71990
O         39.34822        37.32137        -0.32148
O         29.80095        46.55115        -0.45729
O         45.20381        28.18428         2.77553
O         25.71031        40.78374        -1.75719
H         24.89359        41.26367        -2.01517
O         30.76584        36.15411        -1.64446
H         30.09988        36.78169        -2.00131
O         40.19213        49.30783         2.67253
H         41.12249        49.44045         2.97266
O         44.29339        43.94338         2.48182
H         44.35351        44.90083         2.68909
O         47.36423        24.02429         2.84252
H         48.22533        23.92587         3.31209
O         44.96118        31.29646        -0.95609
H         45.31512        32.07260        -1.44576
O         47.82339        36.01041        -1.91817
H         47.36303        35.22284        -2.29469
O         30.54689        31.84496        -2.16343
H         31.31088        32.40211        -2.42354
O         26.09805        31.99116        -3.13673
H         25.49380        32.62846        -3.57377
O         32.97942        50.66239         2.99010
H         32.11357        50.37378         3.37281
O         33.59824        42.73068         3.31094
H         34.02762        42.04409         3.87162
O         37.63621        55.03831         1.36726
H         36.85855        54.60773         1.78248
O         28.94410        33.58520         1.51472
H         28.98533        32.60075         1.64360
O         47.96785        41.71738         2.03985
H         47.18585        41.33062         2.48967
O         50.03140        49.32013         0.99674
H         50.49883        48.62238         1.51850
O         52.25129        24.67308        -1.46455
H         53.00695        24.30577        -1.97286
O         35.06443        49.89113        -0.97797
H         35.88615        49.45970        -1.29804
O         44.87115        23.02158        -1.04016
H         45.45632        23.69458        -1.45931
O         48.85824        51.69054         0.12551
H         49.18376        51.06088         0.81381
O         34.40778        43.46764        -0.19492
H         33.59848        43.09909        -0.61126
O         38.30490        21.90394         2.34084
H         38.97316        21.33227         2.77886
O         30.69575        41.87337        -1.15177
H         30.44894        42.79094        -1.39761
O         39.83413        25.08767        -0.55084
H         39.35962        25.66011        -1.19231
O         26.63322        42.05504         2.45285
H         27.39370        42.50470         2.87946
O         44.25778        38.01573         2.41212
H         44.30976        37.07089         2.67465
O         29.12618        30.84665         1.07318
H         28.24941        30.42161         1.23311
O         49.08863        21.28643        -1.70691
H         49.91009        21.81004        -1.82432
O         47.30625        44.20484        -1.95211
H         46.48260        44.68862        -2.17645
O         43.06931        22.81913         3.06284
H         42.68139        21.96199         3.35571
O         34.24282        48.29516         3.14954
H         34.01646        49.23394         3.38267
H         22.88598        27.56397        -4.42430
H         22.57955        29.79647        -3.43722
H         22.21419        31.31635        -1.78990
H         22.17769        33.73011        -1.37661
H         22.15906        35.60960        -1.08411
H         22.13885        38.00053        -0.70087
H         22.10414        39.85142        -0.31736
H         22.09086        42.23181         0.15833
H         22.05768        43.92086         1.18775
H         22.03011        46.33756         1.67009
H         26.24398        24.22611        -4.46973
H         24.16321        25.50958        -4.72855
H         25.31157        49.80831         1.83512
H         23.22910        48.51356         1.88530
H         27.74084        23.13778        -3.99942
H         26.88764        50.82393         1.37698
H         29.75676        21.83901        -3.58773
H         28.91701        52.12243         1.13558
H         32.91481        19.39647        -1.78848
H         30.98428        20.72817        -2.44568
H         32.77244        54.09466         0.02106
H         30.65159        52.92637         0.42211
H         34.54230        18.35841        -1.56042
H         34.36057        54.71167        -0.98476
H         36.52711        17.05138        -1.11907
H         36.41218        56.00921        -1.17554
H         40.29718        14.80836        -0.44200
H         38.15019        16.00963        -0.63527
H         40.09595        58.20380        -1.72531
H         38.05475        57.12720        -0.82513
H         42.77165        14.86254        -0.17678
H         42.45986        58.07121        -2.41239
H         44.88250        16.10697        -0.03009
H         44.53087        56.79039        -2.66714
H         48.50938        18.38874        -0.78627
H         46.39568        17.15254        -0.71430
H         48.00163        54.38438        -3.52610
H         46.00502        55.71483        -3.12213
H         50.10134        19.13866         0.19638
H         49.88270        53.61937        -3.09631
H         52.22727        20.28156         0.59313
H         52.02459        52.59383        -2.57161
H         55.93939        22.45682        -0.41538
H         53.86608        21.23691        -0.01450
H         55.80955        50.58704        -2.26327
H         53.68024        51.75373        -2.34040
H         57.68830        23.43604         0.10910
H         57.49602        49.71928        -1.91051
H         59.77865        24.71109         0.05666
H         61.01503        26.83553        -0.06586
H         61.03827        29.28745         0.06002
H         61.02214        31.18668         0.18267
H         60.99911        33.60970         0.22939
H         60.97817        35.48581         0.24520
H         60.95730        37.89925         0.06929
H         60.94566        39.75857        -0.17719
H         60.93293        42.14997        -0.54505
H         60.93324        44.00097        -0.94468
H         60.89097        46.41324        -1.38219
H         59.63183        48.50839        -1.75046
