         228
 CSIRO Nanostructure Databank - Neutral Graphene Oxide Data Set
C        -10.93355         0.65560        -1.06432
C         -9.71687         1.44322        -0.87479
C         -8.45379         0.81219        -0.55757
C         -7.39984         1.52672        -0.00233
C         -6.43519         0.90225         0.98733
C         -5.00169         1.66648         0.99520
C         -3.75408         0.81651         0.81388
C         -2.54945         1.42723         0.48054
C         -1.32329         0.71643         0.39765
C         -0.07883         1.44664         0.11140
C          1.20012         0.73122         0.13102
C          2.44688         1.42780         0.17990
C          3.64684         0.69103         0.07912
C          4.90661         1.31622         0.50163
C          6.16712         0.46296         0.42304
C          7.45909         1.31989         0.40235
C          8.72281         0.64311        -0.02794
C          9.95461         1.42426        -0.29456
C         11.17600         0.65703        -0.33521
C         -9.82050         2.83354        -0.73546
C         -8.69444         3.65196        -0.38940
C         -7.44672         2.96540        -0.07958
C         -6.25464         3.63382        -0.00919
C         -5.01521         2.78084        -0.12523
C         -3.73326         3.60858        -0.09697
C         -2.47949         2.88840         0.20881
C         -1.27053         3.62439         0.76221
C         -0.03610         2.94319         0.21640
C          1.26356         3.62073         0.38449
C          2.46562         2.88126         0.36137
C          3.69429         3.59354         0.48247
C          4.95234         2.82417         0.66561
C          6.24812         3.50016         0.44322
C          7.42794         2.80418         0.29586
C          8.66654         3.51355         0.00851
C          9.89072         2.80469        -0.21825
C         -8.68663         5.04867        -0.41764
C         -7.50803         5.82410        -0.12376
C         -6.22641         5.10077         0.28568
C         -4.99806         5.78288        -0.34896
C         -3.72014         5.08005         0.04895
C         -2.51332         5.75215         0.18292
C         -1.26272         5.09360         0.42846
C         -0.02030         5.77115         0.35885
C          1.24388         5.03648         0.41662
C          2.47880         5.73117         0.40780
C          3.69335         4.99854         0.51266
C          4.97588         5.73577         0.69616
C          6.26409         4.97461         0.53789
C          7.48147         5.68111         0.08603
C          8.64331         4.92078        -0.11574
C         -7.49897         7.19860        -0.23101
C         -6.27648         8.00349         0.00418
C         -4.97593         7.25596        -0.00428
C         -3.71180         7.97847        -0.31306
C         -2.45333         7.20697        -0.12715
C         -1.24447         7.97364         0.35000
C          0.02963         7.18405         0.18168
C          1.25045         7.86446         0.02535
C          2.49569         7.16553         0.18429
C          3.70323         7.85795         0.06029
C          4.99595         7.26442         0.56671
C          6.21964         7.79808        -0.15886
C          7.40154         7.05855        -0.23702
C         -6.17693         9.45543        -0.27900
C         -4.98618        10.11662        -0.32887
C         -3.69264         9.45904        -0.24410
C         -2.47457        10.10239        -0.27478
C         -1.21383         9.38991        -0.18409
C          0.00171         9.98638        -0.41594
C          1.25669         9.27497        -0.28214
C          2.47851         9.91183        -0.50556
C          3.71080         9.22512        -0.34366
C          4.96369         9.85011        -0.63693
C          6.15482         9.14567        -0.60666
C        -11.11624        -0.70539        -1.05820
C        -10.04097        -1.67758        -1.13732
C         -8.18966        -0.58355        -0.78910
C         -7.30231        -1.34474        -0.09834
C         -6.46206        -0.72924         1.01312
C         -5.08225        -1.40464         1.12055
C         -3.74098        -0.62648         1.06251
C         -2.50459        -1.37231         0.77131
C         -1.30380        -0.70022         0.48027
C         -0.05246        -1.39995         0.21618
C          1.15588        -0.66664         0.05736
C          2.35168        -1.35128        -0.45730
C          3.66373        -0.67774        -0.39083
C          4.83418        -1.35968        -0.70770
C          6.14609        -0.58791        -0.70461
C          7.38699        -1.45784        -0.59623
C          8.63127        -0.71096        -0.63648
C          9.97847        -1.45664        -0.81275
C         11.17990        -0.71097        -0.40681
C         -9.89915        -2.93157        -0.59455
C         -8.59874        -3.59821        -0.52408
C         -7.31913        -2.82067        -0.36491
C         -6.13689        -3.60029         0.13288
C         -5.05777        -2.90627         0.90559
C         -3.75011        -3.64535         0.89207
C         -2.54337        -2.82703         0.60372
C         -1.26026        -3.57247         0.33571
C         -0.00472        -2.81887         0.24824
C          1.17784        -3.54690         0.05954
C          2.31967        -2.87047        -0.54487
C          3.57826        -3.62464        -0.83104
C          4.83796        -2.79521        -1.08961
C          6.13632        -3.56521        -1.18920
C          7.43471        -2.77399        -1.33529
C          8.68152        -3.57351        -0.95078
C          9.87361        -2.92356        -0.75811
C         -8.54512        -4.97766        -0.45759
C         -7.33699        -5.74885        -0.25872
C         -6.14034        -5.08324         0.13750
C         -4.92901        -5.78547         0.27112
C         -3.68563        -5.07588         0.48864
C         -2.46704        -5.73715         0.50635
C         -1.21387        -5.02617         0.56912
C          0.02029        -5.66243         0.61193
C          1.25267        -4.95101         0.33026
C          2.48401        -5.63424         0.23255
C          3.68104        -5.02110        -0.31291
C          4.90636        -5.67213        -0.30850
C          6.13037        -5.03358        -0.84573
C          7.44076        -5.72020        -0.66926
C          8.61063        -5.01065        -0.78157
C         -7.30790        -7.14661        -0.45434
C         -6.10704        -7.87936        -0.34798
C         -4.89535        -7.20170         0.01116
C         -3.68006        -7.91475         0.07408
C         -2.45397        -7.23827         0.60998
C         -1.16718        -7.86913         0.12863
C          0.07941        -7.12970         0.41111
C          1.29083        -7.89616         0.90177
C          2.56758        -7.01974         0.76327
C          3.88541        -7.71276         0.84024
C          5.16606        -6.94952         0.48123
C          6.25340        -7.79711        -0.14119
C          7.39313        -7.16169        -0.55672
C         -6.02974        -9.28938        -0.60206
C         -4.83793        -9.97098        -0.53379
C         -3.60955        -9.30532        -0.19981
C         -2.36022       -10.00495        -0.17491
C         -1.12538        -9.35209         0.01472
C          0.14168        -9.95580        -0.08882
C          1.37095        -9.25192         0.16657
C          2.62185        -9.80127         0.05630
C          3.80618        -9.25906         0.85895
C          5.08398        -9.90791         0.39809
C          6.16224        -9.24105        -0.06735
O         -2.14188        -3.19271        -0.78284
O         -6.21472        -3.16291        -1.28221
O         -1.44736         8.08712         1.79992
H         -0.68209         8.57281         2.17409
O          6.16921        -0.33196         1.62365
H          6.11515         0.28845         2.38391
O          1.97667        -2.03384        -1.69349
O         -1.23331         3.45214         2.20115
H         -1.97138         3.95898         2.60064
O         -8.91463        -1.19129        -1.82540
O         -0.20284         2.34073        -1.08606
O          5.11155         7.80561         1.92004
H          5.61528         7.13477         2.44116
O          3.98772        -3.27745        -2.18138
O         -2.95336         7.47697        -1.48079
O          7.49476        -2.44709        -2.76172
H          7.16512        -3.24492        -3.23816
O          5.75314        -6.46630         1.72592
H          5.00607        -6.39687         2.36987
O         -6.08418         5.16057         1.73270
H         -5.82970         4.26711         2.06436
O          4.85425         1.93684         1.83829
O          3.52494        -9.68507         2.20701
H          2.71136        -9.16936         2.49357
O          6.26044         0.10837        -1.97429
H          6.56849        -0.55471        -2.63895
O         -4.89460         2.34355         2.25365
H         -5.76252         2.11131         2.71660
O          8.38726         0.78067         1.39879
O         -5.12071         5.66262        -1.78562
H         -4.31657         6.07798        -2.17753
O         -2.44338        -7.53052         2.05060
H         -3.25739        -7.15203         2.44547
O         -5.09110         2.06680        -1.37802
H         -4.28371         2.30008        -1.89665
O          3.32094        -7.09739         2.03501
O         -7.10548        -1.10644         2.23776
H         -7.34956        -0.23232         2.67028
O          1.14142        -8.28038         2.23001
O          6.03021        -4.56762        -2.24879
O         -2.79127         3.20779        -1.18325
O         -5.55106         7.63726         1.26012
O         -0.39195        -7.32344        -0.99123
O          9.31502        -0.80111        -1.93683
O          5.73232         5.34633         1.89244
O         -7.12178         1.33562         2.13209
O         -4.54256        -3.54571         2.11267
O         -4.40944        -1.03053         2.32579
H         12.11572        -1.26762        -0.24842
H         12.12528         1.19358        -0.18514
H         10.80702         3.39706        -0.36379
H          9.56610         5.43643        -0.42229
H          8.30065         7.54516        -0.64756
H          7.07871         9.62815        -0.96040
H          4.96119        10.89627        -0.97641
H          2.49264        10.97347        -0.79453
H          0.04076        11.03887        -0.73742
H         -2.44104        11.19972        -0.36497
H         -4.98911        11.20802        -0.47418
H         -7.11184        10.02204        -0.40924
H         -8.42065         7.72893        -0.51931
H         -9.59451         5.58792        -0.73182
H        -10.79351         3.31966        -0.90782
H        -11.85677         1.26026        -1.05890
H        -12.14958        -1.08189        -0.99121
H        -10.76687        -3.44810        -0.15694
H         -9.47860        -5.54321        -0.60406
H         -8.23078        -7.66792        -0.74997
H         -6.95198        -9.82756        -0.86597
H         -4.81279       -11.05044        -0.74344
H         -2.36892       -11.08729        -0.37929
H          0.19693       -11.05083        -0.20574
H          2.75719       -10.75038        -0.49011
H          5.11260       -11.00703         0.44704
H          7.04323        -9.81125        -0.40213
H          8.28439        -7.74453        -0.83736
H          9.56607        -5.54754        -0.67031
H         10.76188        -3.49607        -0.44714
