         424
 CSIRO Nanostructure Databank - Neutral Graphene Oxide Data Set
C          1.32569         2.18212        -1.04887
C          1.31581         3.57829        -1.07520
C          2.52269         1.47487        -0.98890
C          2.52344         4.32202        -1.05277
C          1.32506         6.53656        -0.93878
C          1.32339         7.88340        -1.08416
C          2.53565         5.75461        -1.07489
C          2.54962         8.59894        -1.59593
C          1.38305        10.81928        -1.48717
C          1.37426        12.21034        -1.39052
C          2.56661        10.09122        -1.34613
C          2.56127        12.93356        -1.18676
C          1.40645        15.14636        -1.25084
C          1.43102        16.57987        -1.16435
C          2.54760        14.38830        -1.13068
C          2.61647        17.27510        -1.18660
C          2.69619        18.70637        -1.11194
C          3.76365         2.16491        -0.96613
C          3.76622         3.60307        -1.01745
C          4.98456         1.46500        -0.87070
C          5.00005         4.29943        -1.00082
C          3.77912         6.45710        -1.10171
C          3.80593         7.88548        -1.16165
C          5.00514         5.72797        -1.02502
C          5.00421         8.58671        -0.95908
C          3.78733        10.78534        -1.13631
C          3.79239        12.21223        -1.07386
C          5.02684        10.05219        -0.97294
C          5.05074        12.92184        -0.98942
C          3.82478        15.12015        -0.77080
C          3.88105        16.48581        -1.44339
C          5.09667        14.33453        -1.00104
C          5.15682        17.21389        -1.09255
C          3.89689        19.35896        -1.03955
C          5.15935        18.65498        -0.99502
C          6.22563         2.14282        -0.83448
C          6.24242         3.58365        -0.92830
C          7.44015         1.44140        -0.67886
C          7.47303         4.27432        -0.93445
C          6.23341         6.43798        -0.92795
C          6.21124         7.84069        -0.80392
C          7.49078         5.72080        -0.93168
C          7.46749         8.51440        -0.47252
C          6.22463        10.75274        -0.84952
C          6.27652        12.18869        -0.94662
C          7.47555        10.05054        -0.50760
C          7.51279        12.88081        -0.91162
C          6.32364        15.02951        -1.00909
C          6.32859        16.48411        -1.02770
C          7.55434        14.29351        -0.92684
C          7.61033        17.21361        -1.01686
C          6.34724        19.33798        -0.74753
C          7.59774        18.65359        -0.68064
C          8.67902         2.12035        -0.64092
C          8.70413         3.54890        -0.81397
C          9.90273         1.42894        -0.46684
C          9.94633         4.22815        -0.83952
C          8.70732         6.41269        -0.94427
C          8.74256         7.82318        -0.71560
C          9.95424         5.64924        -1.34653
C          9.93223         8.55401        -0.63791
C          8.75846        10.70256        -0.67561
C          8.81934        12.14065        -1.07464
C          9.94416         9.98371        -0.52709
C         10.00163        12.83380        -0.44307
C          8.82233        14.96224        -0.72759
C          8.89925        16.43458        -0.83778
C          9.97843        14.24758        -0.39091
C         10.04174        17.14282        -0.22972
C          8.78103        19.28581        -0.33527
C          9.98605        18.55330        -0.05805
C         11.12694         2.11490        -0.42461
C         11.14966         3.54216        -0.61682
C         12.35951         1.42062        -0.23384
C         12.41059         4.25165        -0.51867
C         11.25532         6.40130        -1.06939
C         11.23550         7.88121        -0.81204
C         12.45409         5.66278        -0.62670
C         12.44567         8.54536        -0.28792
C         11.19362        10.68448        -0.28024
C         11.17062        12.10083        -0.13243
C         12.39249         9.95545        -0.03558
C         12.31641        12.78272         0.45317
C         11.29226        14.96828        -0.18064
C         11.14373        16.40750         0.25001
C         12.26488        14.15899         0.64200
C         12.19575        17.06906         0.90063
C         11.11634        19.21032         0.48326
C         12.19607        18.48000         0.97229
C         13.57235         2.09993        -0.15495
C         13.60491         3.53844        -0.24290
C         14.81193         1.39879         0.01999
C         14.83904         4.23938        -0.10499
C         13.64818         6.37391        -0.35533
C         13.63724         7.82585        -0.18835
C         14.84781         5.64829        -0.15794
C         14.84231         8.51043         0.21671
C         13.56881        10.62901         0.41379
C         13.51938        12.02343         0.75178
C         14.79533         9.91245         0.52983
C         14.68464        12.67473         1.19252
C         13.26707        14.81992         1.47537
C         13.25109        16.33390         1.69844
C         14.58421        14.05565         1.68519
C         14.61311        16.98356         1.54290
C         13.36730        19.18154         1.61540
C         14.65100        18.38590         1.49844
C         16.01180         2.06054         0.14969
C         16.06600         3.49779         0.12512
C         17.25625         1.23179         0.37963
C         17.27753         4.17711         0.36653
C         16.15420         6.39337        -0.20373
C         16.06097         7.81166         0.30958
C         17.31686         5.62072         0.37322
C         17.24464         8.48129         0.70143
C         15.98855        10.59728         0.90639
C         15.95292        11.99647         1.24009
C         17.21897         9.88733         0.98916
C         17.13229        12.66304         1.64260
C         15.82250        14.83146         1.83700
C         15.82964        16.23144         1.68109
C         17.05682        14.06489         2.23087
C         17.08003        16.94092         1.69221
C         15.87513        19.06178         1.44202
C         17.10166        18.35943         1.52501
C         18.54331         2.01768         0.35014
C         18.51675         3.44061         0.50848
C         19.74915         1.34788         0.27688
C         19.73115         4.13528         0.68174
C         18.46346         6.30969         0.72112
C         18.47057         7.75089         0.83414
C         19.68303         5.55266         1.18913
C         19.66792         8.44056         1.12758
C         18.42209        10.57545         1.32099
C         18.39116        11.98084         1.64917
C         19.65611         9.86002         1.33274
C         19.60972        12.65585         1.94552
C         18.33161        14.84613         2.04793
C         18.30911        16.21608         1.89500
C         19.60570        14.10640         2.39438
C         19.55496        17.01439         2.04346
C         18.33254        19.07346         1.44703
C         19.56871        18.43758         1.63321
C         20.99333         2.04903         0.32272
C         20.96790         3.46770         0.54571
C         22.22425         1.37624         0.20318
C         22.20472         4.20116         0.55177
C         20.95740         6.32218         0.97897
C         20.92443         7.72451         1.12432
C         22.17882         5.64717         0.75733
C         22.14198         8.45520         1.22404
C         20.87809        10.56615         1.52668
C         20.85835        11.97925         1.80821
C         22.12052         9.86845         1.43294
C         22.10560        12.67199         1.87831
C         20.85137        14.82433         1.95554
C         20.87546        16.27578         2.07301
C         22.15051        14.13178         2.24269
C         22.09454        17.01228         1.71030
C         20.79401        19.10315         1.47856
C         22.04782        18.41622         1.48772
C         23.44984         2.08515         0.21862
C         23.40526         3.51921         0.34178
C         24.69856         1.43132         0.06838
C         24.66442         4.25799         0.17120
C         23.38146         6.38955         0.78393
C         23.38248         7.76815         1.09966
C         24.65466         5.75807         0.41846
C         24.62368         8.48049         1.24578
C         23.35598        10.56491         1.53167
C         23.33517        12.00591         1.68046
C         24.58363         9.86236         1.47821
C         24.53957        12.74510         1.52286
C         23.34463        14.87612         1.69399
C         23.30535        16.29079         1.53054
C         24.54011        14.16675         1.46507
C         24.49985        16.99836         1.18085
C         23.24965        19.10277         1.16615
C         24.46721        18.42023         1.01871
C         25.94145         2.12559         0.11103
C         25.94366         3.55137         0.26135
C         27.18038         1.46717        -0.05780
C         27.14578         4.27813         0.39758
C         25.91747         6.41507         0.78664
C         25.88800         7.78049         1.14812
C         27.13493         5.69935         0.68149
C         27.12421         8.48982         1.28074
C         25.84740        10.63652         1.76347
C         25.77198        11.99647         1.08659
C         27.12203         9.90691         1.41542
C         27.05626        12.77597         1.20608
C         25.76029        14.88122         1.16319
C         25.72946        16.29220         1.03271
C         27.00962        14.19182         1.07900
C         26.93325        17.00602         0.71902
C         25.68813        19.11414         0.70811
C         26.88700        18.44392         0.56183
C         28.40307         2.18040        -0.01672
C         28.39133         3.58923         0.29943
C         29.63544         1.54949        -0.29515
C         29.61786         4.28987         0.47320
C         28.36836         6.38755         0.88946
C         28.36053         7.79268         1.14171
C         29.60912         5.68994         0.76889
C         29.59609         8.50985         1.24699
C         28.30684        10.63792         1.29566
C         28.27566        12.08959         1.20097
C         29.57055         9.95311         1.26978
C         29.49598        12.81503         1.00202
C         28.21551        14.92558         0.86640
C         28.15152        16.31701         0.61573
C         29.47867        14.22707         0.83926
C         29.37642        17.00419         0.06257
C         28.14153        19.15416         0.34332
C         29.32211        18.51039         0.17296
C         30.87851         2.22623        -0.15580
C         30.86579         3.61275         0.31354
C         32.08228         1.59624        -0.46923
C         32.06760         4.31662         0.49332
C         30.83749         6.40280         0.89998
C         30.81762         7.80345         1.16740
C         32.08238         5.71395         0.74031
C         32.08813         8.50770         1.34826
C         30.75779        10.69955         1.16856
C         30.73660        12.11282         0.94633
C         32.05498        10.04654         1.32442
C         31.94108        12.81399         0.68218
C         30.69743        14.93063         0.63679
C         30.67873        16.44404         0.65491
C         31.91156        14.23209         0.50370
C         31.84902        17.06086        -0.07065
C         30.63481        19.26552         0.12480
C         31.78535        18.43322        -0.40395
C         33.37943         2.15568         0.04906
C         33.36538         3.68535         0.05296
C         34.67365         1.53956        -0.49772
C         34.57650         4.32631         0.71467
C         33.33208         6.44921         0.74484
C         33.35112         7.84135         0.98605
C         34.58783         5.74798         0.68295
C         34.55872         8.58090         0.94103
C         33.26969        10.76802         0.93725
C         33.19815        12.10289         0.63066
C         34.59907        10.08480         1.18631
C         34.48313        12.89683         0.52547
C         33.09779        14.90336        -0.00654
C         32.97516        16.29438        -0.42367
C         34.28867        14.20852        -0.18848
C         34.01175        16.88957        -1.17693
C         32.83407        19.02606        -1.10496
C         33.96063        18.26739        -1.51694
C         35.81370         2.19354        -0.93141
C         35.78404         3.68916         1.08932
C         37.16952         1.63538        -0.70928
C         37.03149         4.35308         0.90320
C         35.81389         6.46558         0.79181
C         35.78370         7.90091         0.79019
C         37.04482         5.74452         0.79771
C         37.00545         8.64521         0.62205
C         35.73225        10.74110         0.42377
C         35.63766        12.06683         0.01464
C         36.94535        10.01077         0.23725
C         36.68400        12.67304        -0.75104
C         35.34056        14.72722        -1.01851
C         35.10444        16.04235        -1.66230
C         36.50378        14.00780        -1.27954
C         36.27628        16.73576        -2.35242
C         35.09194        18.90301        -2.12911
C         36.25563        18.20888        -2.43318
C         38.21351         2.23039        -0.06527
C         38.27925         3.48268         0.85317
C         39.50452         1.53547        -0.17407
C         39.51117         4.27902         0.42719
C         38.33844         6.48278         1.07020
C         38.28134         7.96931         0.73286
C         39.53426         5.76673         0.44247
C         39.51443         8.65739         0.01852
C         38.04945        10.63964        -0.44136
C         37.86972        11.94164        -1.01343
C         39.25291         9.92397        -0.66881
C         38.96576        12.54844        -1.74573
C         37.49800        14.51314        -2.31526
C         37.55167        16.01997        -2.41513
C         38.86510        13.88600        -2.20429
C         38.70003        16.70265        -2.77479
C         37.46681        18.85535        -2.81072
C         38.64801        18.14218        -3.00089
C         40.69913         2.12187         0.02815
C         40.84089         3.53963         0.52841
C         41.93622         4.31008        -0.16775
C         40.87617         6.52328         0.37652
C         40.63794         7.81915        -0.39628
C         41.95331         5.64614        -0.22268
C         41.44572         8.28154        -1.41775
C         40.25451        10.42915        -1.54814
C         40.16057        11.81607        -1.97722
C         41.30504         9.58733        -1.93791
C         41.25924        12.47400        -2.57084
C         39.99909        14.55631        -2.70590
C         39.94937        15.99429        -2.99076
C         41.19959        13.82372        -2.86950
C         41.05445        16.70459        -3.42377
C         39.84303        18.81413        -3.42102
C         41.00102        18.11165        -3.63290
O          7.39622         9.29603         0.76185
O         13.55064        14.14877         2.74541
O         32.19767         9.29159         2.59192
O         35.21449        16.05196        -3.13597
O         24.64281         5.22248        -0.95278
O         20.20626        16.78319         3.34253
O         39.28648         8.72239         1.48109
O         11.50818         7.34511        -2.17463
O         39.26678         5.04286        -0.79663
O          8.48994        16.91232        -2.16970
O         36.97816        14.04164        -3.61034
H         36.16600        14.58128        -3.78706
O         33.33394         1.77456         1.48764
H         33.10107         0.82238         1.52995
O         12.87224        16.56767         3.08905
H         13.20302        15.78700         3.59658
O         16.46094         6.51985        -1.64498
H         17.29962         7.02319        -1.72054
O         25.89128        10.88619         3.19784
H         25.93319        10.02226         3.65789
O         38.53152         2.96460         2.18405
H         37.70245         2.52500         2.48064
O         41.20931         3.46626         1.93008
H         40.41138         3.15633         2.41960
O         25.59932        11.74044        -0.34533
H         25.58537        12.60551        -0.80623
O         33.39605         4.09075        -1.37221
H         33.26738         5.06344        -1.40241
O          2.50394         8.46742        -3.06594
H          2.51685         7.50792        -3.27036
O          3.93827        16.24564        -2.87959
H          4.00877        17.11412        -3.32769
O         30.72207        16.86820         2.05389
H         31.47876        16.41446         2.48221
O         41.30606         6.88581         1.70755
H         40.81067         7.69499         1.97494
O         16.91787        13.84547         3.68923
H         17.83595        13.74887         4.05328
O         38.49183         6.39076         2.51314
H         39.05489         7.14072         2.80554
O         13.52357        20.50121         1.08877
H         13.64279        20.43411         0.11951
O         29.42405        16.67883        -1.36025
H         28.60678        17.02536        -1.77557
O         34.83260        13.23118         1.91319
H         34.96087        12.37311         2.38709
O         30.95609        19.65352         1.47797
H         30.92971        18.82636         2.01723
O          9.09010        12.14767        -2.53134
H          9.19146        13.08563        -2.80187
O         35.85515         2.48920         1.71287
H         34.93887         2.11187         1.82990
O         35.86301         3.32874        -1.64808
H         34.94653         3.67530        -1.81110
O         17.30358         0.13345        -0.54214
H         17.35276         0.49917        -1.44898
O         19.62808        14.09347         3.90252
H         19.72472        15.05250         4.14438
O          3.77381        15.36049         0.66820
H          3.69693        14.49225         1.11615
O         19.55018         5.43564         2.65769
H         18.71408         4.95414         2.83488
O         34.85970        10.29971         2.61508
H         34.08921         9.90404         3.09041
O         22.34381        14.14753         3.71431
H         21.48649        13.84523         4.10607
O         11.91080        15.05605        -1.52006
H         11.30335        15.57854        -2.08748
O          9.85303         5.50396        -2.79882
H         10.29910         6.29600        -3.18352
H          0.37173         1.63655        -1.07114
H          0.35026         4.09937        -1.12389
H          2.51705         0.37604        -0.95655
H          0.39228         6.02668        -0.65758
H          0.38549         8.44007        -0.94619
H          0.43790        10.30026        -1.69642
H          0.41799        12.73809        -1.50281
H          0.42726        14.66844        -1.39841
H          0.47482        17.12042        -1.09561
H          1.75846        19.28182        -1.07410
H          4.97058         0.36655        -0.80756
H          3.91835        20.45584        -0.95909
H          7.42103         0.34607        -0.57721
H          6.32649        20.42579        -0.58266
H          9.89158         0.33460        -0.35418
H          8.77623        20.36894        -0.14080
H         12.34432         0.32429        -0.14229
H         11.11919        20.30636         0.57437
H         14.79906         0.29920         0.05090
H         13.14947        19.29848         2.71209
H         17.17214         0.76799         1.40428
H         15.87953        20.15946         1.37424
H         19.75158         0.25404         0.16130
H         18.30575        20.15356         1.23984
H         22.23331         0.28381         0.07392
H         20.78624        20.17455         1.22856
H         24.70973         0.34012        -0.07138
H         23.21783        20.19170         1.01221
H         27.19549         0.38467        -0.25187
H         25.66010        20.20979         0.60932
H         29.63800         0.49294        -0.60216
H         28.11813        20.25487         0.37863
H         32.06438         0.55686        -0.83263
H         30.52955        20.20735        -0.47144
H         34.89777         0.58472         0.01161
H         32.79393        20.09940        -1.34372
H         37.37313         0.65428        -1.17577
H         35.07411        19.99667        -2.24834
H         39.47391         0.49484        -0.53811
H         37.46561        19.94668        -2.95065
H         41.62246         1.53878        -0.11255
H         42.77871         3.73647        -0.58585
H         42.82604         6.14762        -0.66815
H         42.27881         7.66839        -1.78666
H         42.04907         9.93706        -2.66563
H         42.19733        11.93023        -2.74589
H         42.09726        14.31427        -3.26813
H         42.00925        16.19605        -3.61252
H         39.80860        19.90060        -3.58615
H         41.90926        18.63183        -3.96793
