         424
 CSIRO Nanostructure Databank - Neutral Graphene Oxide Data Set
C          1.21118         2.01319        -0.26302
C          1.18000         3.41326        -0.27787
C          2.41665         1.33280        -0.17578
C          2.36732         4.17155        -0.20158
C          1.14926         6.35547        -0.31975
C          1.13813         7.73746        -0.32313
C          2.35663         5.62476        -0.21445
C          2.33675         8.48832        -0.21671
C          1.12974        10.68550        -0.30399
C          1.13345        12.07066        -0.28327
C          2.32667         9.93648        -0.21621
C          2.34066        12.81061        -0.21846
C          1.13914        15.04649        -0.11203
C          1.13594        16.40434        -0.07196
C          2.35888        14.26294        -0.21058
C          2.38420        17.17933        -0.08271
C          2.39867        18.61466        -0.44578
C          3.64026         2.05162        -0.09913
C          3.61243         3.48610        -0.10819
C          4.87435         1.36922        -0.01941
C          4.84192         4.21649        -0.02345
C          3.58059         6.34861        -0.11470
C          3.56617         7.78066        -0.11143
C          4.82595         5.64519        -0.01454
C          4.79950         8.50930         0.02540
C          3.56207        10.64738        -0.10197
C          3.56651        12.09209        -0.14522
C          4.77220         9.92903         0.03814
C          4.80804        12.80331        -0.14790
C          3.57774        14.92592        -0.34982
C          3.65783        16.39727        -0.26929
C          4.82429        14.21404        -0.37272
C          4.75944        17.09015        -1.06451
C          3.56626        19.26399        -0.66530
C          4.84375        18.56233        -0.69922
C          6.09816         2.07160         0.04150
C          6.07702         3.51219         0.04440
C          7.33452         1.38652         0.08776
C          7.30613         4.23346         0.12581
C          6.05773         6.36904         0.10526
C          6.03934         7.80590         0.13363
C          7.27736         5.65161         0.18088
C          7.28416         8.54857         0.10039
C          6.02610        10.66437         0.43458
C          6.03785        12.12682         0.07665
C          7.27749         9.93314         0.02318
C          7.23035        12.83574         0.14470
C          6.05242        14.91672        -0.43488
C          6.14182        16.31717        -1.01113
C          7.25920        14.24395        -0.12193
C          7.31228        17.09868        -0.47603
C          6.03328        19.22121        -0.58827
C          7.30462        18.52298        -0.49883
C          8.56604         2.08713         0.09008
C          8.55119         3.51877         0.12515
C          9.80471         1.39879         0.03122
C          9.79255         4.24065         0.00832
C          8.55633         6.37036         0.49601
C          8.55079         7.83793         0.15298
C          9.77804         5.63149         0.01846
C          9.74175         8.52933         0.18027
C          8.52550        10.72293        -0.26112
C          8.49620        12.08362         0.47952
C          9.79652         9.96343         0.04849
C          9.73532        12.87495         0.19617
C          8.49612        14.97223        -0.05766
C          8.51138        16.39997        -0.19074
C          9.73325        14.26263         0.10305
C          9.74650        17.11539        -0.10904
C          8.50288        19.22523        -0.33147
C          9.74908        18.54588        -0.20244
C         11.04051         2.08740        -0.08669
C         11.03643         3.51950        -0.14781
C         12.27715         1.39582        -0.13478
C         12.27047         4.22065        -0.29739
C         10.97475         6.42772        -0.41164
C         11.02113         7.75324         0.39671
C         12.28443         5.67030        -0.31111
C         12.23416         8.56267         0.01724
C         10.98076        10.67091         0.17842
C         11.02382        12.15406        -0.08190
C         12.24384        10.00862         0.33596
C         12.17628        12.84354         0.64584
C         10.99539        14.99046         0.09977
C         10.98621        16.41228        -0.00104
C         12.22443        14.30606         0.26499
C         12.21597        17.12563         0.00057
C         10.97556        19.24368        -0.16729
C         12.21645        18.56089        -0.08456
C         13.50483         2.08723        -0.27335
C         13.48204         3.51338        -0.38143
C         14.75418         1.40573        -0.28086
C         14.74543         4.24750        -0.74775
C         13.48865         6.35590        -0.23976
C         13.50811         7.83214        -0.18305
C         14.75655         5.68677        -0.30538
C         14.76899         8.52393         0.10053
C         13.44855        10.68625         0.45773
C         13.48673        12.11618         0.49165
C         14.71906         9.90748         0.69938
C         14.69129        12.81362         0.45504
C         13.44946        14.98436         0.20019
C         13.45802        16.41816         0.04295
C         14.70650        14.26099         0.32018
C         14.67365        17.12649        -0.03288
C         13.45080        19.25126        -0.08769
C         14.68732        18.55747        -0.06380
C         15.99899         2.09865        -0.30457
C         16.01507         3.52438        -0.40199
C         17.23110         1.41277        -0.18960
C         17.22824         4.23656        -0.38456
C         15.95758         6.38865        -0.20368
C         15.95735         7.82482         0.04642
C         17.23200         5.70278        -0.30491
C         17.21545         8.53228         0.20085
C         15.97464        10.68246         0.42796
C         15.94896        12.08395         0.41158
C         17.20199         9.95671         0.35557
C         17.17820        12.80582         0.36948
C         15.91569        14.94106         0.22614
C         15.95632        16.37310        -0.25423
C         17.16996        14.23644         0.33112
C         17.16216        17.14209         0.19363
C         15.93037        19.24835        -0.04694
C         17.16320        18.55098         0.14413
C         18.46191         2.10216        -0.23872
C         18.45279         3.52544        -0.36985
C         19.69792         1.38312        -0.10047
C         19.72078         4.24858        -0.57451
C         18.41985         6.41366        -0.20584
C         18.43555         7.83701         0.04827
C         19.73654         5.78319        -0.60627
C         19.67846         8.53828         0.19582
C         18.43545        10.65957         0.43348
C         18.41400        12.10162         0.45951
C         19.65558         9.92526         0.44218
C         19.61620        12.83978         0.48579
C         18.37984        14.95054         0.36591
C         18.37638        16.42041         0.68726
C         19.61955        14.25485         0.37729
C         19.65758        17.12919         0.33401
C         18.40271        19.25044         0.27680
C         19.64668        18.55634         0.27879
C         20.93619         2.02065        -0.05659
C         20.99286         3.47502        -0.33932
C         22.16463         1.34233         0.12746
C         22.21983         4.20130         0.02305
C         20.93133         6.42284         0.08125
C         20.93702         7.79073         0.26906
C         22.12633         5.61809         0.53722
C         22.19263         8.49223         0.53362
C         20.89619        10.63436         0.79402
C         20.87230        12.15486         0.79484
C         22.20143         9.93987         0.67978
C         22.12718        12.87791         0.59682
C         20.86034        14.95997         0.25659
C         20.86939        16.41031         0.19166
C         22.08574        14.22381         0.24790
C         22.08575        17.12454         0.04415
C         20.88372        19.24678         0.21203
C         22.10757        18.54805         0.11509
C         23.39817         2.03381         0.15907
C         23.39131         3.49418         0.17590
C         24.62731         1.36140         0.28804
C         24.64366         4.20597         0.38168
C         23.43437         6.35684         0.39524
C         23.41047         7.80014         0.50255
C         24.62098         5.65684         0.35492
C         24.66865         8.49459         0.65656
C         23.36542        10.65410         0.81311
C         23.37113        12.15577         1.06866
C         24.66426         9.93613         1.10860
C         24.64168        12.80823         0.59458
C         23.33660        14.91968        -0.15047
C         23.34912        16.43148        -0.39855
C         24.62297        14.21349         0.11237
C         24.60305        17.12756         0.10147
C         23.36523        19.24082         0.09057
C         24.59486        18.55672         0.15038
C         25.85436         2.06276         0.43934
C         25.82985         3.50864         0.52591
C         27.09039         1.39398         0.46573
C         27.08443         4.21764         0.97286
C         25.91938         6.38271         0.08723
C         25.87030         7.83223         0.52391
C         27.11544         5.67145         0.63984
C         27.12630         8.54862         0.56206
C         25.88998        10.68730         0.63796
C         25.82119        12.10712         0.48282
C         27.10114         9.99184         0.47046
C         27.04352        12.88394         0.04453
C         25.83582        15.02437         0.30431
C         25.80800        16.40890         0.31816
C         27.06548        14.26790         0.71195
C         27.05995        17.14993         0.76116
C         25.85214        19.26014         0.19797
C         27.07176        18.60412         0.34528
C         28.33539         2.10432         0.40245
C         28.35370         3.52015         0.53014
C         29.55321         1.41589         0.17361
C         29.55361         4.24151         0.30715
C         28.37578         6.40635         0.95573
C         28.34064         7.86241         0.57191
C         29.59269         5.68142         0.41364
C         29.57451         8.55361         0.39406
C         28.33314        10.68952         0.26359
C         28.33353        12.12232         0.20860
C         29.56668         9.97575         0.24334
C         29.51455        12.81950         0.12901
C         28.32520        15.04279         0.41630
C         28.34307        16.41239         0.42340
C         29.56748        14.26650         0.39386
C         29.58345        17.14903         0.25482
C         28.31495        19.27398         0.21637
C         29.55978        18.59969         0.18359
C         30.75684         2.11711        -0.02987
C         30.73755         3.53417        -0.02014
C         32.01290         1.42349        -0.21499
C         31.94701         4.27946        -0.50439
C         30.78449         6.39819         0.20746
C         30.80041         7.84463         0.27395
C         32.00642         5.71673        -0.07959
C         32.02436         8.54674         0.09007
C         30.79563        10.65936         0.04010
C         30.75581        12.10577        -0.18871
C         32.02484         9.97696        -0.00475
C         32.05504        12.85691        -0.34024
C         30.86650        15.01944         0.24316
C         30.80066        16.47994         0.10903
C         32.08990        14.31315        -0.14927
C         32.03878        17.17149        -0.10765
C         30.78876        19.29139         0.04463
C         32.03209        18.62702        -0.08154
C         33.22198         2.09335        -0.31516
C         33.24935         3.54649        -0.32717
C         34.48171         1.38768        -0.32865
C         34.43730         4.24461        -0.36098
C         33.23106         6.40380        -0.12031
C         33.25516         7.83622        -0.02605
C         34.47355         5.68728        -0.26943
C         34.49085         8.53523        -0.09973
C         33.27521        10.69153        -0.12766
C         33.30945        12.10419        -0.21577
C         34.50460         9.96746        -0.11262
C         34.52581        12.82238        -0.23063
C         33.27633        15.01047        -0.28229
C         33.23043        16.45574        -0.28134
C         34.53570        14.26579        -0.32438
C         34.48113        17.19551        -0.49274
C         33.26289        19.32734        -0.12476
C         34.50662        18.65998        -0.24388
C         35.68758         2.04935        -0.42436
C         35.71258         3.53017        -0.72125
C         36.94146         1.36205        -0.43793
C         36.95839         4.23362        -0.25711
C         35.70185         6.37813        -0.21298
C         35.72429         7.81149        -0.13501
C         36.95861         5.65262        -0.13839
C         36.95987         8.51389        -0.09255
C         35.74108        10.67070        -0.14591
C         35.75692        12.09897        -0.18757
C         36.97504         9.94405        -0.11658
C         36.99627        12.80021        -0.22093
C         35.75213        14.94192        -0.32010
C         35.76555        16.41962        -0.46286
C         37.00386        14.23093        -0.27768
C         36.99801        17.12535         0.05898
C         35.74276        19.31413        -0.24195
C         37.00424        18.62038        -0.20225
C         38.14646         2.05188        -0.43551
C         38.16821         3.49687        -0.25154
C         39.40628         1.35982        -0.53298
C         39.39762         4.16144        -0.08911
C         38.16465         6.35884         0.06797
C         38.20098         7.78753         0.03207
C         39.41305         5.58196         0.40256
C         39.42449         8.50208         0.09150
C         38.21024        10.64870        -0.13967
C         38.22742        12.07950        -0.21532
C         39.44373         9.91826        -0.06624
C         39.46480        12.78804        -0.28150
C         38.23504        14.92172        -0.35882
C         38.22776        16.40050        -0.45511
C         39.47495        14.22268        -0.35859
C         39.51414        17.14244        -0.44108
C         38.21013        19.27391        -0.20936
C         39.48894        18.54938         0.14257
C         40.58994         2.03672        -0.49739
C         40.62571         3.46521        -0.28318
C         41.82593         4.18479        -0.32074
C         40.69691         6.31669         0.10677
C         40.70703         7.78736         0.48091
C         41.83370         5.60021        -0.17676
C         41.93076         8.53156         0.02760
C         40.67948        10.62609        -0.17498
C         40.69499        12.05237        -0.28086
C         41.90388         9.85756        -0.22625
C         41.91052        12.78584        -0.35974
C         40.73005        14.92911        -0.40597
C         40.78691        16.38015        -0.39522
C         41.92113        14.16741        -0.41511
C         41.94442        17.12804        -0.38372
C         40.76054        19.27398        -0.21183
C         41.90256        18.57214        -0.41062
O         24.02089        14.23816        -1.26828
O         38.77146        16.95960        -1.69268
O          4.30770        17.08428        -2.40395
O         20.49970         3.73580        -1.72330
O         31.26345        12.48704        -1.54383
O         20.79520        11.37705         2.07630
O         12.73592         8.40682        -1.36301
O          3.32102        16.90669         1.04980
O         35.22878        16.86270        -1.73789
O         30.41410        14.54322         1.58739
O         37.01584        16.94879         1.51363
H         36.27001        17.46132         1.89229
O         40.73775         7.81643         1.95197
H         40.08512         7.13548         2.25733
O         26.92994        13.15387        -1.38008
H         26.88191        12.29899        -1.85618
O         14.72539         4.30489        -2.23013
H         15.53501         4.78202        -2.51349
O         31.76945         4.34230        -1.98559
H         32.49513         4.90298        -2.33647
O         39.48710        18.40189         1.60097
H         38.67362        17.89228         1.84021
O         14.71728         9.67179         2.16537
H         15.57945         9.26490         2.39878
O         28.54683         6.40190         2.42743
H         28.13090         5.56912         2.76497
O         27.01656        14.08288         2.14992
H         27.02815        14.98167         2.55490
O         26.06842         6.40548        -1.38967
H         25.26205         6.82571        -1.75796
O         27.07000         4.09320         2.47208
H         27.19379         3.14033         2.67572
O         39.37648         5.45626         1.90858
H         40.08481         4.81972         2.15016
O          6.54228        16.13529        -2.39820
H          5.73908        16.45277        -2.92284
O         11.24711        12.30173        -1.51393
H         10.43820        11.95656        -1.96201
O         18.29723        16.47272         2.17970
H         19.12085        16.06639         2.52595
O         35.76789         3.61491        -2.20177
H         35.02194         3.07778        -2.54624
O          6.01236        10.63557         1.91440
H          6.24187         9.72387         2.19489
O          8.56029        11.06698        -1.68678
H          8.46031        10.23668        -2.19978
O         16.08830        16.25623        -1.73805
H         15.26046        15.84712        -2.07128
O         26.99643        17.12858         2.23456
H         27.75340        17.65771         2.56630
O         10.73870         6.75012        -1.81169
H         11.50334         7.30925        -2.10382
O          8.52715        11.74457         1.89218
H          8.51014        12.57528         2.41111
O         11.83757        12.79220         2.06420
H         12.63295        13.04426         2.57834
O         23.38145        16.62816        -1.85159
H         23.84953        15.84007        -2.22084
O         19.88192         6.17416        -2.01170
H         20.34175         5.42134        -2.45788
O         24.75548         9.91030         2.57585
H         24.50804        10.81690         2.88873
O         23.34840        12.29587         2.54282
H         22.46095        11.95082         2.82132
O          8.66347         6.34176         2.00008
H          8.55548         5.40470         2.27465
O         21.89443         5.44418         1.99319
H         22.74352         5.15661         2.39306
O         11.17871         7.44440         1.79792
H         10.30942         7.10209         2.13253
H          0.26788         1.45247        -0.32275
H          0.20507         3.91306        -0.34921
H          2.43744         0.23372        -0.16702
H          0.19100         5.82595        -0.40284
H          0.17201         8.25194        -0.40972
H          0.16295        10.17029        -0.38290
H          0.17106        12.59573        -0.34710
H          0.17469        14.51961        -0.09532
H          0.17987        16.95013        -0.08611
H          1.44222        19.15945        -0.46154
H          4.88245         0.26913        -0.01682
H          3.56962        20.35434        -0.82282
H          7.33986         0.28666         0.07023
H          6.04393        20.31459        -0.45266
H          9.80476         0.29864         0.04239
H          8.49252        20.32544        -0.33922
H         12.28140         0.29826        -0.06290
H         10.97163        20.34204        -0.23618
H         14.76113         0.30824        -0.20411
H         13.45212        20.35089        -0.12911
H         17.23168         0.31796        -0.08342
H         15.93466        20.34746        -0.08177
H         19.65130         0.29000         0.01663
H         18.40339        20.34999         0.24408
H         22.16008         0.24869         0.24831
H         20.88805        20.34718         0.22035
H         24.64375         0.26161         0.26239
H         23.36005        20.34078         0.11329
H         27.10728         0.29720         0.38253
H         25.84371        20.34776         0.02506
H         29.54599         0.31750         0.11221
H         28.30562        20.36293         0.05151
H         32.00647         0.32306        -0.19722
H         30.77553        20.39198         0.03550
H         34.46885         0.29160        -0.22304
H         33.25479        20.42379        -0.02995
H         36.94539         0.26094        -0.44069
H         35.76217        20.41447        -0.21242
H         39.39463         0.26870        -0.67213
H         38.23584        20.36921        -0.32312
H         41.54312         1.50101        -0.61612
H         42.77177         3.65936        -0.51209
H         42.79799         6.11250        -0.30308
H         42.89618         8.00694         0.01001
H         42.84346        10.36390        -0.48751
H         42.87351        12.25904        -0.35915
H         42.89137        14.68056        -0.46001
H         42.93255        16.64689        -0.39542
H         40.76718        20.37408        -0.22131
H         42.84822        19.10435        -0.59193
