         344
 CSIRO Nanostructure Databank - Neutral Graphene Oxide Data Set
C          1.48764         2.55233        -2.40821
C          1.39452         3.89596        -1.86431
C          2.62389         1.83271        -2.29340
C          2.51031         4.58469        -1.47958
C          1.25293         6.53495        -0.59788
C          1.19528         7.73573         0.11301
C          2.47800         5.90730        -0.85968
C          2.35842         8.38073         0.52763
C          1.16959        10.56681         1.06148
C          1.21267        11.89814         0.81211
C          2.24706         9.56092         1.47151
C          2.39210        12.75995         0.76477
C          1.38131        14.44439        -0.82916
C          1.44913        15.58827        -1.56113
C          2.45502        14.00426         0.04024
C          2.51450        16.57506        -1.33987
C          2.82357        17.61533        -2.33293
C          3.79536         2.43562        -1.55208
C          3.84575         3.94434        -1.79905
C          5.12402         1.79780        -1.84613
C          5.03323         4.57720        -1.11693
C          3.68726         6.55515        -0.45007
C          3.62856         7.81979         0.20655
C          4.96700         5.89831        -0.60529
C          4.86007         8.47006         0.60573
C          3.58225        10.19784         1.69882
C          3.55453        12.35879         1.42080
C          4.80246         9.79198         1.24462
C          4.83967        12.85075         1.09797
C          3.64335        14.76074         0.10975
C          3.67897        16.12893        -0.42693
C          4.86991        14.17103         0.56444
C          4.97505        16.79094        -0.60530
C          4.00363        18.28473        -2.30875
C          5.10008        17.90607        -1.43000
C          6.29580         2.47660        -1.58600
C          6.25002         3.88273        -1.15117
C          7.55357         1.79595        -1.61529
C          7.44688         4.54966        -0.78372
C          6.15833         6.53079        -0.14238
C          6.08330         7.83163         0.45108
C          7.41741         5.86704        -0.29102
C          7.28201         8.42134         1.16281
C          6.04204        10.60652         1.34956
C          6.04351        12.09588         1.31339
C          7.23379         9.93709         1.19136
C          7.25238        12.81108         1.26098
C          6.10492        14.85876         0.52277
C          6.10482        16.34331         0.27898
C          7.28998        14.20269         0.91465
C          7.44591        16.87811        -0.12570
C          6.35796        18.58172        -1.51830
C          7.51036        18.06992        -0.89545
C          8.76008         2.43984        -1.31774
C          8.73677         3.90825        -1.10087
C          9.95831         1.73108        -1.14554
C         10.02035         4.61624        -0.72069
C          8.64726         6.49036         0.18001
C          8.60864         7.81860         0.75282
C          9.87283         5.83754         0.07712
C          9.80786         8.49981         0.97355
C          8.50946        10.69152         1.12077
C          8.49939        12.08143         1.70868
C          9.81407         9.97080         1.06631
C          9.80326        12.80769         1.49981
C          8.53602        14.93526         0.90919
C          8.61629        16.24270         0.36082
C          9.74435        14.27670         1.42692
C          9.91064        16.88069         0.11837
C          8.79742        18.68706        -1.10671
C          9.95055        18.13140        -0.62622
C         11.20185         2.34627        -0.81257
C         11.35015         3.86275        -0.79272
C         12.33851         1.59917        -0.62433
C         12.39560         4.28635         0.22555
C         10.94355         6.30666         1.03001
C         11.06007         7.81850         1.00103
C         12.28026         5.58260         0.94379
C         12.27046         8.51400         1.17516
C         11.06816        10.67071         1.40812
C         11.02531        12.11870         1.53349
C         12.27152         9.96046         1.34704
C         12.27580        12.82675         1.57869
C         11.07071        15.01804         1.28726
C         11.08408        16.27658         0.52516
C         12.31734        14.21795         1.39091
C         12.43396        16.77478         0.05751
C         11.26395        18.82216        -0.96020
C         12.47594        18.25092        -0.26070
C         13.68639         2.25878        -0.48130
C         13.56481         3.59848         0.22636
C         14.72868         1.39519         0.27741
C         14.81091         4.15675         0.89389
C         13.56618         6.35258         1.15733
C         13.53574         7.82831         1.16004
C         14.83055         5.67420         0.81797
C         14.74534         8.52904         1.09443
C         13.54469        10.63475         1.46692
C         13.55063        12.07975         1.91033
C         14.73630         9.96104         1.28366
C         14.80429        12.81872         1.50100
C         13.53405        14.91874         1.35712
C         13.50069        16.36456         1.04960
C         14.78697        14.23656         1.43147
C         14.74137        17.16510         1.17742
C         13.61047        18.98345        -0.12173
C         14.84251        18.47133         0.47735
C         16.05834         2.09528         0.19944
C         16.06346         3.50870         0.36019
C         17.23089         1.42808        -0.10133
C         17.22406         4.24574         0.13801
C         15.96479         6.40119         0.59896
C         15.99802         7.83957         0.82476
C         17.15440         5.73990        -0.04923
C         17.21205         8.53240         0.74911
C         16.05825        10.64797         1.57227
C         16.01030        12.13558         1.31700
C         17.26844         9.96969         0.95614
C         17.17798        12.86218         1.00621
C         15.99899        14.96681         1.31663
C         16.00399        16.45009         1.63572
C         17.18093        14.26892         1.04590
C         17.27216        17.14737         1.21282
C         16.00643        19.16743         0.51622
C         17.24656        18.66398         1.25267
C         18.45630         2.14581        -0.22517
C         18.44491         3.57558        -0.13703
C         19.67601         1.47773        -0.45607
C         19.66576         4.31533        -0.31608
C         18.46181         6.44031         0.19407
C         18.45597         7.83700         0.43404
C         19.65838         5.76798        -0.11226
C         19.68027         8.53565         0.41700
C         18.40648        10.67728         0.67552
C         18.40556        12.16847         0.48751
C         19.73167        10.02999         0.35393
C         19.70805        12.86890         0.84953
C         18.41527        15.01301         0.59581
C         18.41774        16.45581         1.03424
C         19.70299        14.26293         0.85201
C         19.71888        17.18491         1.22926
C         18.49530        19.24700         0.62963
C         19.67183        18.55819         0.59048
C         20.87890         2.19908        -0.60261
C         20.85436         3.63677        -0.55596
C         22.11737         1.52268        -0.72253
C         22.10883         4.36375        -0.97833
C         20.87772         6.48637        -0.13235
C         20.90413         7.85690         0.22301
C         22.11142         5.84516        -0.61129
C         22.16005         8.53798         0.51158
C         20.82044        10.65826         1.28398
C         20.92725        12.14102         0.95550
C         22.19018         9.85955         1.30477
C         22.16497        12.82790         0.85303
C         20.94407        14.98877         0.85415
C         20.94504        16.38890         0.88119
C         22.17626        14.24279         0.75220
C         22.22610        17.16228         0.88713
C         20.87949        19.10792         0.03853
C         22.10785        18.47359         0.12774
C         23.35923         2.21207        -0.63196
C         23.37788         3.63916        -0.57990
C         24.56817         1.48586        -0.53872
C         24.59782         4.32957        -0.35771
C         23.40928         6.55363        -0.29617
C         23.34585         7.86683         0.37323
C         24.63940         5.74562        -0.18640
C         24.61006         8.45544         0.95286
C         23.42282        10.66257         0.87014
C         23.41620        12.07986         0.75795
C         24.63203         9.96112         0.75146
C         24.63030        12.76839         0.49043
C         23.41151        14.96550         0.52680
C         23.41414        16.34712         0.47612
C         24.64657        14.20073         0.34536
C         24.69605        17.12139         0.33599
C         23.28217        19.07615        -0.39584
C         24.54369        18.47447        -0.33318
C         25.80361         2.15086        -0.38312
C         25.82146         3.57932        -0.25882
C         27.02378         1.42628        -0.34444
C         27.06483         4.25357        -0.09150
C         25.86093         6.40927         0.13720
C         25.86879         7.76366         0.50497
C         27.09842         5.66264         0.09346
C         27.15093         8.46501         0.84224
C         25.86964        10.63192         0.51285
C         25.86092        12.05391         0.34710
C         27.11317         9.92927         0.45354
C         27.08190        12.73945         0.05897
C         25.83022        14.85478         0.01283
C         25.76876        16.29305        -0.32102
C         27.07170        14.16031        -0.15731
C         27.00089        17.01024        -0.74419
C         25.70888        19.13766        -0.75505
C         26.98128        18.49552        -0.77682
C         28.25719         2.08425        -0.22885
C         28.28751         3.50917        -0.10730
C         29.49728         1.36010        -0.24034
C         29.53752         4.18683        -0.03054
C         28.34983         6.34552         0.19638
C         28.38144         7.74516         0.36352
C         29.57698         5.61030         0.07255
C         29.60052         8.45388         0.22797
C         28.31824        10.60369         0.20446
C         28.30837        12.02345        -0.01556
C         29.58136         9.88896         0.15163
C         29.52939        12.72347        -0.26903
C         28.26944        14.85003        -0.47321
C         28.29313        16.29585        -0.67479
C         29.50828        14.13409        -0.51197
C         29.46003        17.00358        -0.75114
C         28.16688        19.18041        -0.91613
C         29.50503        18.50928        -0.94440
C         30.69841         2.01629        -0.16733
C         30.75242         3.44311        -0.07377
C         31.98570         4.14170        -0.02385
C         30.82179         6.29095         0.08339
C         30.82952         7.73494         0.09249
C         32.01906         5.52080         0.04059
C         32.02821         8.47623        -0.04041
C         30.78890        10.58589        -0.06435
C         30.77639        12.02628        -0.27395
C         32.00549         9.85337        -0.11810
C         31.95879        12.74462        -0.50829
C         30.72811        14.82085        -0.75848
C         30.77189        16.30690        -1.01540
C         31.93187        14.12073        -0.74783
C         31.08553        16.60361        -2.47870
C         30.06133        18.80744        -2.30808
C         30.71509        17.81249        -3.04295
O          2.61679        17.01934         0.04995
O         12.89111         5.64745         2.28769
O         10.34230        15.02717         2.55890
O          3.48095        11.38525         2.43356
O         13.68667        17.22706         2.22343
O          9.18025        10.58568        -0.17015
O          9.46994         4.72435        -2.09285
O         22.80914         6.61603        -1.66020
O         22.42153         9.50754         2.66941
O         26.02996        16.49536        -1.74443
O         27.26469         8.43764         2.31411
H         26.33412         8.43620         2.67158
O         11.95678         4.21561        -2.07828
H         11.20316         4.34395        -2.70532
O         19.81663        17.39051         2.68030
H         20.63134        17.92336         2.83873
O         10.39108         5.99225         2.35169
H         11.13466         6.08002         2.99180
O          3.55425         2.24228        -0.12355
H          3.47339         1.28016         0.04206
O         14.78431         3.78632         2.30551
H         14.05759         4.31741         2.71778
O         18.32245        15.08539        -0.86975
H         18.27833        14.14489        -1.19058
O         20.26964        10.63196         2.60867
H         20.97267        10.18496         3.16622
O         25.18562        17.38436         1.69191
H         24.42737        17.77901         2.18726
O         18.32297        12.34237        -0.98719
H         19.06406        11.79250        -1.35636
O         12.76085        16.04865        -1.17024
H         12.07226        16.25012        -1.83791
O         16.22829        10.50953         3.02028
H         15.43909        10.92519         3.44232
O         14.85315         0.08564        -0.26180
H         13.97956        -0.35216        -0.24190
O         16.90307         5.92392        -1.49583
H         17.58478         5.40938        -1.97920
O         22.09396         4.28758        -2.44325
H         22.58481         5.08468        -2.75753
O         30.37206        19.10597         0.08394
H         29.93220        18.97812         0.95100
O         16.02784        16.54437         3.09868
H         15.08701        16.66826         3.37792
O         14.18930         2.49284        -1.82121
H         13.54515         3.10717        -2.25231
O          7.13963         8.00307         2.56994
H          6.27711         8.34272         2.89179
O         17.15832        19.11265         2.63263
H         16.84866        18.33993         3.16387
O          8.37777        11.89575         3.15691
H          8.40482        12.78172         3.57714
O         11.15723        20.23152        -0.74111
H         11.02397        20.38244         0.21705
O         20.13958        10.37166        -1.01870
H         19.83475         9.65531        -1.61563
O          1.79589         9.02060         2.75353
H          1.85321         9.75156         3.40572
O         22.49016        17.56020         2.31060
H         22.51990        16.72721         2.83193
O         31.85250        16.85973        -0.22621
H         31.67577        17.82909        -0.12781
O         24.60436         8.19523         2.39274
H         23.75947         8.67137         2.73859
O         13.61971        12.00446         3.39170
H         13.50617        12.91592         3.73831
O          5.81328        16.94271         1.61131
H          5.64012        17.89777         1.46714
O          4.06822         4.11950        -3.22975
H          4.11894         5.08084        -3.41160
H          0.59114         2.11705        -2.87431
H          0.38883         4.32746        -1.75820
H          2.67783         0.79072        -2.64440
H          0.31102         6.05956        -0.90154
H          0.21361         8.15320         0.37416
H          0.16597        10.11128         1.03279
H          0.25390        12.37443         0.54898
H          0.53679        13.75916        -0.99058
H          0.68946        15.79943        -2.32885
H          2.07438        17.83872        -3.10755
H          5.16155         0.72877        -2.11174
H          4.19355        19.08348        -3.04122
H          7.56075         0.71351        -1.81517
H          6.44130        19.47512        -2.15410
H          9.93933         0.63534        -1.25346
H          8.84671        19.62500        -1.67953
H         12.28337         0.50379        -0.73396
H         11.42879        18.69345        -2.07050
H         14.39952         1.33010         1.35778
H         13.60591        20.03235        -0.45942
H         17.22109         0.33932        -0.24789
H         16.05500        20.16343         0.04716
H         19.69406         0.37873        -0.50260
H         18.44498        20.26830         0.21869
H         22.12329         0.42304        -0.76398
H         20.82370        20.09168        -0.45445
H         24.54632         0.38785        -0.59578
H         23.18577        20.05914        -0.88394
H         26.99799         0.33030        -0.43542
H         25.64662        20.19880        -1.04310
H         29.46642         0.26379        -0.32017
H         28.15613        20.27853        -0.99571
H         31.64170         1.45123        -0.18628
H         32.92522         3.57087        -0.04925
H         32.99462         6.02460         0.06684
H         32.99361         7.95838        -0.11423
H         32.95908        10.38086        -0.24873
H         32.93210        12.23731        -0.50383
H         32.87132        14.66572        -0.91099
H         31.66523        15.87261        -3.06222
H         29.85606        19.78667        -2.76359
H         31.01474        18.03070        -4.08017
