         661
 CSIRO Nanostructure Databank - Neutral Graphene Oxide Data Set
C          5.88234        31.76976         1.25294
C          5.87829        33.11461         1.38575
C          8.33198        27.39407         0.83592
C          8.27047        28.80492         0.88158
C          7.12981        29.55596         1.20953
C          8.30425        31.69999         0.94723
C          7.12699        30.99553         1.15210
C          8.29093        33.16973         0.83398
C          7.17590        33.87320         1.57879
C          8.34123        36.05125         1.14475
C          7.16451        35.35338         1.29581
C          8.38168        37.48828         1.03551
C         10.84572        23.15580         0.21703
C         10.82318        24.56484         0.24312
C          9.60002        25.28456         0.50120
C         10.76589        27.44121         0.24003
C          9.52153        26.67622         0.51629
C         10.64008        28.87847        -0.13364
C          9.43699        29.58264         0.37353
C         10.82223        31.71554         0.49147
C          9.60673        30.95990         0.96709
C         10.84818        33.17976         0.58809
C          9.56512        33.91746         0.59270
C         10.81576        36.00436         0.99273
C          9.62358        35.35220         0.96369
C         10.86120        37.44806         1.41255
C          9.58347        38.18079         1.04848
C         10.85964        40.28292         0.85208
C          9.64019        39.58426         0.87778
C         10.88162        41.68463         0.68568
C         13.34061        18.89372        -0.08491
C         13.30143        20.31581        -0.06791
C         12.08567        21.02262         0.01886
C         13.28601        23.16525        -0.12209
C         12.05503        22.44092         0.03149
C         13.26484        24.58365        -0.18163
C         12.04553        25.26183        -0.00001
C         13.17763        27.39366        -0.81653
C         12.05992        26.73724        -0.00345
C         13.17654        28.92413        -0.67283
C         11.90971        29.64798        -0.34462
C         13.22791        31.84028        -0.13211
C         11.94795        31.05794         0.09894
C         13.26165        32.99953         0.89774
C         12.03045        33.84836         0.66992
C         13.37280        36.00735         0.93937
C         12.08472        35.34053         0.49523
C         13.36799        37.44068         0.95900
C         12.12892        38.16133         0.99758
C         13.35796        40.28422         0.85382
C         12.12372        39.55430         0.90738
C         13.34268        41.70157         0.87281
C         12.08411        42.40927         0.71306
C         13.24486        44.59316         0.76226
C         12.10568        43.80532         0.50005
C         13.17936        45.97036         0.51510
C         15.87869        14.67101         0.11572
C         15.77809        16.07487         0.28883
C         14.61686        16.75736        -0.04801
C         15.78630        18.92729         0.00519
C         14.55744        18.19744        -0.02319
C         15.78295        20.34878        -0.13833
C         14.53947        21.04869        -0.12666
C         15.76220        23.18928        -0.24111
C         14.52959        22.46505        -0.17646
C         15.75135        24.61719        -0.32196
C         14.50995        25.32227        -0.33285
C         15.72579        27.42798        -0.60355
C         14.50859        26.72292        -0.50210
C         15.69063        28.89233        -0.83890
C         14.46156        29.64972        -0.47403
C         15.73100        31.76726        -0.21481
C         14.47728        30.96476        -0.11483
C         15.84320        33.06450         0.53518
C         14.58165        33.78622         0.93720
C         15.82356        35.97334         0.90602
C         14.59406        35.28387         0.95461
C         15.85702        37.44208         1.03777
C         14.58791        38.17165         0.93950
C         15.83731        40.33151         0.81111
C         14.60434        39.58451         0.89798
C         15.77460        41.74986         0.82104
C         14.54919        42.43052         0.96154
C         15.77877        44.61495         1.37555
C         14.44126        43.87990         1.41872
C         15.87338        45.85407         1.89385
C         14.16362        46.86870         1.04076
C         16.02878        48.56747         0.73865
C         14.77929        47.90680         0.38526
C         16.22799        49.78315         0.08359
C         18.33228        10.44131        -0.34994
C         18.27810        11.76891         0.07580
C         17.11467        12.56721        -0.02441
C         18.19931        14.58643         1.02347
C         17.02968        13.91294         0.39036
C         18.19275        16.09323         1.13932
C         16.88438        16.88861         0.95310
C         18.21620        18.92187         0.19525
C         17.02701        18.24762         0.29070
C         18.27404        20.28774        -0.46750
C         17.00295        21.06721        -0.22760
C         18.24230        23.21158        -0.31653
C         17.00071        22.47587        -0.26034
C         18.21547        24.60079        -0.43877
C         16.98266        25.33159        -0.45630
C         18.23104        27.50720        -0.61482
C         16.97144        26.75500        -0.58784
C         18.24390        28.92715        -0.66980
C         16.98291        29.64395        -0.97055
C         18.28519        31.85094        -0.86995
C         16.95345        31.13683        -0.79598
C         18.23772        33.26469        -0.35725
C         17.13268        33.81436         0.39166
C         18.18122        36.15111        -0.04644
C         17.11861        35.32599         0.67684
C         18.48873        37.46502         0.71237
C         17.16552        38.21824         0.96237
C         18.31223        40.37921         0.45655
C         17.10959        39.67221         0.69866
C         18.31746        41.80695         0.50062
C         17.02378        42.50805         0.60237
C         18.31506        44.64101         1.18650
C         17.02201        43.97988         0.88326
C         18.34343        45.91478         1.70188
C         17.10361        46.66174         2.15075
C         18.32597        48.79961         1.61923
C         17.13170        48.05700         1.51188
C         18.41649        50.16453         1.15286
C         17.33243        50.62692         0.30478
C         17.99349        52.96949        -0.20333
C         17.30518        51.81073        -0.51034
C         18.32327        54.08162        -0.99875
C         20.83813         6.31530        -1.38929
C         20.81627         7.59293        -0.84030
C         19.57817         8.30222        -0.69016
C         20.79394        10.30690        -0.05646
C         19.54305         9.65411        -0.33295
C         20.75782        11.77638         0.11096
C         19.49916        12.31040         0.79010
C         20.78623        14.62269         0.96128
C         19.51388        13.83065         1.02866
C         20.77831        16.10821         0.89636
C         19.49601        16.85081         1.04046
C         20.73120        18.87109        -0.06030
C         19.49005        18.29002         0.60391
C         20.75818        20.38909         0.07261
C         19.53633        21.06622        -0.13680
C         20.70921        23.19425         0.02943
C         19.50438        22.47934        -0.17305
C         20.65707        24.67029         0.04809
C         19.51218        25.33132        -0.68758
C         20.66847        27.55178        -0.33406
C         19.46028        26.82624        -0.46939
C         20.65731        28.96683        -0.32953
C         19.44472        29.64725        -0.46332
C         20.71110        31.85463        -0.49057
C         19.42495        31.12897        -0.14709
C         20.67735        33.25261        -0.71442
C         19.44378        33.99974        -0.46622
C         20.58971        36.16477        -0.80748
C         19.45107        35.38637        -0.29885
C         20.67398        37.63011        -0.55818
C         19.56807        38.28552         0.01582
C         20.70829        40.44619        -0.25593
C         19.55081        39.69559         0.11567
C         20.72487        41.88896        -0.03264
C         19.50178        42.54784         0.39594
C         20.72998        44.66010         0.74424
C         19.53204        43.95761         0.76787
C         20.87564        45.96327         1.41370
C         19.61004        46.61919         1.94170
C         20.89136        48.85595         2.11731
C         19.52822        48.11349         2.28621
C         20.88776        50.33313         1.83552
C         19.62311        50.94531         1.33304
C         20.82354        53.02915         0.52223
C         19.67428        52.31061         1.00537
C         20.77637        54.19603        -0.27619
C         19.54483        54.79038        -0.82882
C         20.78144        56.79196        -1.65906
C         19.58675        56.06301        -1.43121
C         20.76146        58.03644        -2.26625
C         23.33145         3.59278        -2.21357
C         22.14242         4.24147        -2.11570
C         23.29848         6.12203        -0.96967
C         22.13651         5.73522        -1.88176
C         23.31903         7.60548        -0.67624
C         22.06968         8.26820        -0.51972
C         23.26600        10.34955         0.20915
C         22.01607         9.64376        -0.15804
C         23.33130        11.81112         0.20527
C         22.04371        12.53295         0.10464
C         23.31652        14.69652         0.63039
C         22.03281        13.98963         0.42472
C         23.24945        16.07267         1.26035
C         21.96821        16.77135         0.82264
C         23.29112        18.94028         0.56354
C         22.02685        18.17471         0.35539
C         23.24070        20.42202         0.50818
C         21.96377        21.10457         0.28644
C         23.16171        23.31280         0.38254
C         21.93140        22.53254         0.27091
C         23.19733        24.67241         0.20866
C         21.94492        25.43990         0.14548
C         23.13808        27.54764        -0.41156
C         21.94519        26.87019        -0.22732
C         23.17298        28.98194        -0.51529
C         21.94094        29.72669        -0.06387
C         23.11932        31.84755        -0.88006
C         21.92023        31.16207        -0.54214
C         23.08379        33.23693        -1.12789
C         21.86899        33.93717        -1.02561
C         23.07172        36.14201        -1.51696
C         21.79525        35.39267        -1.29564
C         23.02435        37.65141        -1.48471
C         21.82281        38.36691        -0.95946
C         23.02273        40.57787        -1.23030
C         21.85131        39.77118        -0.76683
C         23.03516        42.06892        -0.97096
C         21.86759        42.64564        -0.26926
C         23.18492        44.85921         0.03325
C         21.87498        44.09154         0.01670
C         23.25001        46.14803         0.77388
C         22.12502        46.74814         1.28578
C         23.38210        48.90178         1.47718
C         22.22456        48.07387         2.04439
C         23.37487        50.26508         1.29729
C         22.20502        51.13204         1.73714
C         23.36781        53.02213         0.35185
C         22.12197        52.47808         0.98062
C         23.24474        54.11614        -0.61369
C         22.02766        54.77121        -0.79209
C         23.22484        56.72245        -1.74240
C         22.04305        56.08242        -1.42690
C         23.22157        58.21762        -1.92574
C         22.03323        58.64646        -2.79379
C         23.22005        60.80542        -3.02596
C         22.03049        60.15117        -2.93954
C         24.58052         4.28633        -2.02615
C         25.80283         6.31985        -1.36489
C         24.60799         5.56844        -1.50485
C         25.79250         7.63088        -0.86584
C         24.54988         8.24956        -0.48842
C         25.84111        10.40387         0.01802
C         24.60386         9.60594         0.07590
C         25.80078        11.75354         0.39607
C         24.54255        12.45001         0.45625
C         25.82868        14.65474         1.04256
C         24.55251        13.88847         0.84391
C         25.79134        16.13724         1.03728
C         24.54271        16.84121         1.04604
C         25.75531        18.96665         1.20325
C         24.50193        18.22975         1.05909
C         25.72374        20.49021         0.89454
C         24.41189        21.12194         0.60264
C         25.72488        23.24232         0.09023
C         24.43684        22.58804         0.54759
C         25.67730        24.63413        -0.35228
C         24.50031        25.45154         0.16942
C         25.64784        27.46509        -0.63495
C         24.34903        26.69931        -0.71901
C         25.63606        28.96563        -0.73736
C         24.34557        29.68998        -0.78962
C         25.59194        31.80089        -1.21443
C         24.37763        31.11786        -0.97242
C         25.61389        33.24191        -1.34024
C         24.31016        33.95547        -1.63936
C         25.58884        36.17325        -1.66239
C         24.32946        35.42962        -1.26904
C         25.59414        37.62622        -1.23868
C         24.34370        38.38496        -1.51430
C         25.67259        40.61230        -1.33357
C         24.33657        39.87331        -1.50378
C         25.51562        41.89147        -0.48603
C         24.38735        42.82115        -1.03426
C         25.65164        44.72358        -0.00870
C         24.43907        44.13441        -0.26323
C         25.71428        46.01755         0.64702
C         24.56310        46.74563         0.95074
C         25.84099        48.81821         1.26718
C         24.62939        48.15439         1.27792
C         25.90550        50.31631         1.35313
C         24.60802        50.95796         0.93606
C         25.83961        52.85308        -0.05309
C         24.61544        52.22765         0.41090
C         25.79078        54.03825        -0.78011
C         24.49082        54.58727        -1.22139
C         25.76860        56.73306        -1.92470
C         24.48583        56.00142        -1.81356
C         25.73947        58.08463        -2.29387
C         24.52354        58.80404        -2.44041
C         24.47668        60.11439        -2.88938
C         27.00445         8.40196        -0.77943
C         28.36763        10.45782        -0.47644
C         27.04565         9.72463        -0.38531
C         28.39168        11.81533         0.21134
C         27.07304        12.49003         0.65450
C         28.27974        14.68467         0.66816
C         27.09855        13.95688         0.77181
C         28.26427        16.12918         0.78328
C         27.01766        16.83127         0.94930
C         28.20866        19.00117         0.87854
C         27.02600        18.26486         1.00853
C         28.17864        20.42309         0.55151
C         26.93657        21.07742         0.36784
C         28.09503        22.99532        -0.85291
C         26.77134        22.30952        -0.48968
C         28.08889        24.48449        -1.26714
C         26.82970        25.26879        -0.83532
C         28.13483        27.44143        -0.76851
C         26.86429        26.67514        -0.91762
C         28.09960        28.84705        -1.41635
C         26.86543        29.68299        -1.10932
C         28.11755        31.77523        -1.52573
C         26.83378        31.04257        -1.31688
C         28.13016        33.31555        -1.58725
C         26.79684        33.97584        -1.33801
C         27.99590        36.09869        -0.88956
C         26.83453        35.41750        -1.27531
C         27.98300        37.52272        -0.60618
C         26.74089        38.27488        -0.84650
C         27.89804        40.36837        -0.28300
C         26.77275        39.73209        -0.72931
C         27.99194        41.82938        -0.36237
C         26.86635        42.58652        -0.44073
C         28.21602        44.66706        -0.05239
C         26.91902        44.09368        -0.58305
C         28.25624        45.89658         0.55719
C         27.02553        46.56316         1.01660
C         28.36350        48.80405         1.10770
C         27.10206        48.08542         1.35083
C         28.35493        50.14446         0.71846
C         27.12858        50.89042         0.68238
C         28.31310        52.79523        -0.34467
C         27.09736        52.16578         0.12885
C         28.24553        54.06775        -0.93547
C         27.00641        54.71111        -1.17869
C         26.96715        56.02137        -1.71610
C         29.53347        12.68102        -0.04641
C         30.72904        14.80381         0.25976
C         29.53221        14.02805         0.30943
C         30.72555        16.17971         0.51289
C         29.46624        16.86152         0.70459
C         30.67682        19.00725         0.76192
C         29.46565        18.29601         0.77865
C         30.65528        20.51790         0.86970
C         29.39680        21.08429         0.27243
C         30.68415        23.14471        -0.67624
C         29.40161        22.32793        -0.50903
C         30.50163        24.57895        -0.13697
C         29.31816        25.24280        -0.80226
C         30.58311        27.44370        -0.74227
C         29.39597        26.67096        -1.24735
C         30.51956        28.86549        -0.69401
C         29.35584        29.55545        -0.98729
C         30.46315        31.74567        -0.46176
C         29.35721        31.01873        -1.13915
C         30.41531        33.22441        -0.36395
C         29.24687        33.98614        -0.81304
C         30.38050        36.03118        -0.05411
C         29.21303        35.34878        -0.59240
C         30.32038        37.41727         0.21128
C         29.09874        38.15396        -0.05916
C         30.27432        40.32847         0.65191
C         28.94244        39.57709         0.47271
C         30.47037        41.65882         0.07309
C         29.35960        42.42788        -0.60419
C         30.66570        44.50925        -0.05633
C         29.44387        43.90819        -0.23615
C         30.73264        46.01304         0.05251
C         29.55356        46.54770         0.83412
C         30.87863        48.74658         0.73523
C         29.61955        48.04956         1.09819
C         30.82866        50.10553         0.42601
C         29.59402        50.80988         0.33700
C         29.54581        52.11602        -0.16369
C         31.93667        16.93616         0.59998
C         33.18875        19.07430         1.07923
C         31.91701        18.31267         0.76856
C         33.15704        20.52039         0.63265
C         31.92434        21.17083         0.37387
C         33.14813        23.20976        -0.25922
C         31.93541        22.47746        -0.12901
C         33.01859        24.63776        -0.53792
C         31.79343        25.33833        -0.40002
C         33.03381        27.49862        -0.55815
C         31.79220        26.75129        -0.52458
C         33.01866        28.90535        -0.48808
C         31.72722        29.58121        -0.12703
C         32.92347        31.77001        -0.25961
C         31.76603        31.05943        -0.39589
C         32.88318        33.20616         0.01442
C         31.67603        33.92220        -0.10109
C         32.76886        35.95500         0.67588
C         31.60725        35.31236         0.15872
C         32.67918        37.34287         0.95358
C         31.49329        38.05608         0.73654
C         32.86731        40.16818         0.88209
C         31.52554        39.52432         0.94329
C         32.98815        41.51499         0.48376
C         31.80781        42.20135        -0.02979
C         33.19028        44.39800         0.31031
C         31.93373        43.77156        -0.14911
C         33.20165        45.80421         0.55632
C         32.05183        46.59147         0.51535
C         32.07843        47.99162         0.69606
C         34.34609        21.23009         0.52723
C         35.63861        23.28976         0.35756
C         34.39110        22.60088         0.14482
C         35.97684        24.50725        -0.25888
C         34.15636        25.40256        -0.88265
C         35.52045        27.51412        -0.75886
C         34.26557        26.80437        -0.70121
C         35.37912        28.89729        -1.00013
C         34.19774        29.62781        -0.71909
C         35.45566        31.76791         0.15941
C         34.23699        31.09531        -0.45663
C         35.13475        32.94172         1.08680
C         34.02428        33.83869         0.57581
C         35.11981        35.80737         1.57779
C         33.96494        35.19470         0.95059
C         35.03892        37.22516         2.00992
C         33.83428        38.01572         1.59639
C         35.29793        40.05379         1.27827
C         33.98779        39.45429         1.30861
C         35.39160        41.43001         0.91084
C         34.25553        42.17791         0.56749
C         34.32338        43.61246         0.47565
C         36.84419        25.52831         0.14954
C         37.90400        27.66376         0.14164
C         36.79618        26.91838        -0.27393
C         38.32948        29.11134        -0.08784
C         37.16362        30.01645        -0.32064
C         37.52719        31.44161         1.66695
C         36.70980        31.01876         0.46392
C         37.52887        32.95964         1.79070
C         36.38638        33.68070         1.49880
C         37.52743        35.79296         2.17289
C         36.31402        35.10210         1.74099
C         37.55559        37.15894         2.31788
C         36.31342        38.00178         2.38298
C         36.42916        39.31765         1.65170
C         39.22302        29.68983         0.97727
C         39.95377        31.51883         2.41194
C         38.92512        30.83664         1.64036
C         39.86010        32.84291         2.69381
C         38.70149        33.63204         2.30962
C         38.70414        35.00457         2.43963
O         25.07756        14.06921         2.20936
O         22.66668        41.52858        -2.29122
O         29.79602        47.04029         2.16133
O          8.62466        33.64806        -0.51242
O         30.75662        40.11773         2.05404
O         20.31680        14.08316         2.23448
O         14.68241        46.48082         2.29825
O         20.86283        49.82505         3.20808
O         12.39292        29.55222        -1.75421
O         35.24120        24.75765        -1.45097
O         25.79705        19.97441         2.26381
O         16.89731        43.50769        -0.50159
O         36.46835        29.63798        -1.48444
O         25.77401        28.27314         0.59597
O         22.29381        44.92481        -1.14163
O          9.60684        29.33251        -1.05986
O         32.07821        42.92861        -1.30368
O         30.02588        32.32783         0.81686
O         27.95334        11.78882         1.60012
O         11.79316        27.33043         1.30954
O         28.75315        22.15373        -1.86166
O         21.04024        25.24289         1.32053
O         25.41461        23.13182         1.52357
O         18.49405        53.03384         1.11457
O         22.97729        18.31985        -0.77494
O         19.61779        17.96001         2.01198
O         20.48656        45.89708         2.86053
O         22.93048        36.95016        -2.77815
O         17.59951        34.41243         1.67343
O         35.14608        31.94468        -1.24072
O         27.11592        47.05727         2.38307
O         16.03596        31.88225        -1.66067
O         20.76752        35.79419        -2.24442
O         23.92111         9.73584         1.36697
O         29.04333        31.28788        -2.57661
O         24.37014        39.16859        -2.78503
O         18.01278        15.23799         2.31915
O         33.97511        37.52597         2.99603
O         16.62634        37.86943         2.28020
O         21.23188        12.37799        -1.14104
O         24.42771        54.80773        -2.66744
O         16.26246        29.21538        -2.16597
O         15.43568        33.10057         1.92884
O         22.70160        14.70103        -0.68594
O         22.91888        53.49054         1.69866
O         28.39787        33.67790        -2.98149
H         28.97875        32.97594        -3.35748
O         12.08861        35.56933        -0.96430
H         11.43830        34.95497        -1.36889
O         28.07118        28.70029        -2.85835
H         28.39015        29.55333        -3.23807
O         22.58571        47.76948         3.41326
H         22.39297        48.58371         3.93301
O         26.95834        44.42534        -1.99579
H         26.22409        43.92902        -2.44191
O         22.02490        29.81138         1.41055
H         22.97182        29.77706         1.66653
O         34.57640        32.31409         2.28655
H         34.46407        33.01042         2.96758
O         25.09458        41.51579         0.84572
H         25.84611        41.06664         1.29095
O         18.65552        31.84872        -2.26707
H         17.85630        32.09392        -2.78335
O         31.56982        29.46661         1.32677
H         32.18505        30.09883         1.75565
O         28.72023        10.62823        -1.86277
H         27.94684        10.98721        -2.34371
O         22.23966        58.08152        -4.12504
H         21.51248        58.39332        -4.70257
O         28.35170        27.59861         0.65915
H         27.49214        27.90297         1.05016
O         30.26612        24.48662         1.29517
H         30.07223        25.38772         1.63152
O         19.82927        25.14611        -2.10753
H         19.07539        25.48785        -2.63357
O         26.05305        50.64636         2.78074
H         25.26391        50.29237         3.24546
O          9.88454        30.67971         2.38398
H         10.06113        31.53280         2.83543
O         18.30517        20.04767        -1.91449
H         19.11582        19.50327        -2.08815
O         17.59736        36.49702        -1.33311
H         18.31717        36.57868        -1.99600
O         36.21912        38.38846         3.79403
H         35.25397        38.36663         4.01278
O         23.02986        58.77648        -0.59520
H         23.01520        59.75329        -0.68698
O         23.05750         5.46842         0.30836
H         23.75075         5.76279         0.93526
O         36.88572        30.89952         2.85776
H         37.38426        31.22340         3.63673
O         30.91689        23.33578        -2.09374
H         30.95970        22.45312        -2.51757
O         30.52293        46.52265        -1.30530
H         31.17347        46.09164        -1.89870
O         17.08176        46.76454         3.59334
H         17.80668        47.37609         3.88721
O         12.91050        27.07464        -2.20268
H         12.54666        27.88868        -2.62588
O         29.54277        42.34041        -2.04950
H         30.46048        42.64703        -2.24343
O         10.90458        37.43844         2.88301
H         10.91829        38.37206         3.18341
O         19.29999        48.13377         3.72214
H         20.00657        47.57728         4.12158
O         34.33736        18.40975         0.54484
H         34.30882        18.48032        -0.43095
O         13.05942        32.40199         2.20144
H         13.94084        32.34721         2.64182
O         19.06077        37.12470         1.98719
H         18.31620        37.08657         2.63558
O         26.12021        41.01096        -2.63879
H         25.89232        40.27419        -3.25244
O         24.63314        43.14277        -2.41182
H         24.10618        42.51188        -2.96125
O         24.20098        33.89502        -3.10102
H         24.85218        34.55466        -3.45583
O         28.34546        39.42033         1.79743
H         29.09777        39.41205         2.43968
O         30.62611        20.82964         2.31259
H         29.76643        20.51459         2.66586
O         23.12614        15.91158         2.69460
H         23.86795        15.32581         2.98642
O         26.17674        21.86563        -1.74617
H         26.92073        21.54196        -2.30505
O         25.59120        36.23004        -3.14431
H         24.75581        36.70605        -3.39277
O         28.04231        24.48870        -2.72895
H         28.65341        23.76613        -3.01159
O          7.53669        33.72327         2.99617
H          6.84467        34.16547         3.53122
O         19.18997        31.22741         1.27624
H         19.96339        30.82446         1.73187
O         24.79562        25.87845         1.51600
H         24.98742        25.06280         2.03600
O         13.18544        32.42312        -1.45101
H         13.10131        31.68367        -2.09444
O         20.55295        18.56657        -1.47727
H         21.45649        18.58647        -1.87753
O         22.55822        51.46158         3.10543
H         23.02426        52.33269         3.07532
O         39.12291        29.07865        -1.31274
H         38.48244        29.01364        -2.05573
O         24.19202        26.20403        -2.07125
H         24.01761        26.95872        -2.67089
O         29.52370        26.68657        -2.68877
H         28.88560        26.01408        -3.04337
O         22.37818         6.36632        -3.18100
H         21.65921         6.09274        -3.78795
O         14.08678        43.76728         2.83114
H         14.07122        44.68411         3.18991
O         16.39755        17.20536         2.28410
H         16.66525        16.45821         2.86842
O         19.47406        11.67789         2.09473
H         19.85442        12.31385         2.74396
H          4.93037        31.21948         1.19875
H          4.92513        33.66173         1.45701
H          7.43540        26.81488         1.10691
H          6.19557        29.03682         1.47265
H          6.21444        35.90472         1.38162
H          7.43534        38.03944         0.92155
H          9.91077        22.59618         0.36875
H          8.69267        24.69600         0.70590
H          8.70274        40.14334         0.73396
H          9.93018        42.22342         0.56324
H         12.39427        18.33286        -0.08987
H         11.14122        20.46425         0.10089
H         11.17426        44.30705         0.19475
H         12.37727        46.35436        -0.13557
H         15.02374        14.15381        -0.34822
H         13.72412        16.19655        -0.36534
H         14.31358        48.25661        -0.54921
H         15.43670        50.14685        -0.58842
H         17.42000         9.97329        -0.75131
H         16.22809        12.12837        -0.50860
H         16.69347        51.77848        -1.42386
H         17.65353        54.39228        -1.81451
H         19.89024         5.84286        -1.69500
H         18.64277         7.78130        -0.94438
H         18.63834        56.49567        -1.78466
H         19.79409        58.49155        -2.53450
H         23.36063         2.52616        -2.48180
H         21.19591         3.72067        -2.32724
H         23.24044        61.88501        -3.23831
H         21.08075        60.68409        -3.09979
H         25.51737         3.78708        -2.31547
H         26.75441         5.88055        -1.70206
H         26.69032        58.60372        -2.49339
H         25.40416        60.63980        -3.16007
H         27.94089         7.91677        -1.09389
H         29.17298         9.82069        -0.02702
H         29.17561        54.56818        -1.24328
H         27.92282        56.53528        -1.90112
H         30.41362        12.24961        -0.54540
H         31.68107        14.29314         0.05266
H         31.75452        50.62674         0.14013
H         30.47967        52.61079        -0.46919
H         32.90286        16.41136         0.56383
H         33.30942        19.05839         2.19843
H         34.15862        46.27080         0.83529
H         33.04630        48.51435         0.73141
H         35.28765        20.72007         0.77953
H         36.33021        22.85645         1.09581
H         36.37098        41.92847         0.95963
H         35.27528        44.09976         0.73323
H         37.58942        25.27788         0.92020
H         38.71382        27.06265         0.58988
H         38.49721        37.64790         2.61118
H         37.40752        39.82184         1.66348
H         40.23980        29.27250         1.05363
H         40.87266        30.96500         2.65712
H         40.68899        33.36071         3.19829
H         39.60215        35.51683         2.81585
