         420
 CSIRO Nanostructure Databank - Neutral Graphene Oxide Data Set
C         27.92426        27.38961         0.57100
C         27.92602        28.78100         0.86669
C         26.75398        29.52963         1.04261
C         27.92062        31.69066         0.84090
C         26.75588        30.93202         1.03505
C         27.90988        33.10389         0.56257
C         26.69365        33.83858         0.53526
C         27.88541        35.93630         0.15665
C         26.68276        35.20120         0.34099
C         27.87651        37.36518         0.01776
C         26.65802        38.10758         0.02385
C         27.86118        40.23188        -0.07797
C         26.64802        39.47854        -0.02319
C         27.85654        41.65352        -0.05827
C         26.64135        42.41812         0.14995
C         27.84361        44.54928        -0.31132
C         26.62691        43.77038         0.10861
C         27.88615        45.94514         0.23949
C         30.37166        27.35745         0.30113
C         29.09776        26.70286         0.34513
C         30.43186        28.75167         0.52390
C         29.22137        29.45066         0.96588
C         30.43217        31.68249         0.46206
C         29.21876        31.01754         0.94199
C         30.37808        33.08846         0.24151
C         29.13207        33.80562         0.33307
C         30.35082        35.93833        -0.06290
C         29.12414        35.22279         0.13390
C         30.34960        37.36459        -0.15273
C         29.10445        38.07911        -0.10124
C         30.33439        40.21518        -0.22386
C         29.09821        39.50574        -0.14949
C         30.32614        41.63776        -0.18215
C         29.09716        42.36714        -0.11991
C         30.33704        44.47791         0.13084
C         29.11910        43.78645        -0.05668
C         30.34491        45.92326         0.35235
C         29.05080        46.58065         0.47618
C         32.80840        24.52894        -0.17978
C         31.62095        25.22008        -0.05264
C         32.83680        27.33815         0.00729
C         31.59997        26.63234         0.07041
C         32.84811        28.77000         0.07748
C         31.63897        29.48171         0.34393
C         32.83446        31.59373        -0.05632
C         31.63145        30.92400         0.30072
C         32.77831        33.02928        -0.34745
C         31.56349        33.80376        -0.07929
C         32.82935        35.94429        -0.26746
C         31.58195        35.21627        -0.16446
C         32.82730        37.36923        -0.31312
C         31.57742        38.08226        -0.27814
C         32.80608        40.23948        -0.40910
C         31.57684        39.50722        -0.30867
C         32.79730        41.64070        -0.31721
C         31.55756        42.35123        -0.16344
C         32.82846        44.41454         0.33150
C         31.54797        43.74556         0.06149
C         32.81675        45.89428         0.60657
C         31.53842        46.63000         0.48344
C         32.76242        48.79152         0.51089
C         31.60617        48.07879         0.48284
C         35.34065        23.05924        -0.30517
C         35.30710        24.47510        -0.28680
C         34.05725        25.20090        -0.21123
C         35.31167        27.33346        -0.22853
C         34.06591        26.62085        -0.14937
C         35.30649        28.75902        -0.21611
C         34.07528        29.47541        -0.09742
C         35.31691        31.62348        -0.24859
C         34.06097        30.90193        -0.17782
C         35.32429        33.02627        -0.12849
C         34.11193        33.79471        -0.36730
C         35.28131        35.97349        -0.16453
C         34.07198        35.25802        -0.20128
C         35.27855        37.36633        -0.38340
C         34.06091        38.07827        -0.43164
C         35.26196        40.23195        -0.68583
C         34.07706        39.53152        -0.53353
C         35.25560        41.71828        -0.96406
C         34.02880        42.39944        -0.41551
C         35.28242        44.53066        -0.37688
C         34.05794        43.73382        -0.12451
C         35.30273        45.99430        -0.06913
C         34.11196        46.65675         0.54826
C         35.34601        48.86762         0.16635
C         34.09695        48.15298         0.56058
C         35.36183        50.26175         0.04599
C         37.77907        23.04355        -0.36792
C         36.53532        22.36720        -0.34548
C         37.77857        24.46532        -0.36004
C         36.54141        25.18461        -0.32192
C         37.77887        27.33515        -0.42441
C         36.54263        26.61918        -0.32086
C         37.75578        28.74580        -0.46502
C         36.54267        29.47386        -0.32196
C         37.80328        31.62727        -0.26621
C         36.55234        30.90292        -0.27577
C         37.82516        33.03049        -0.02809
C         36.56025        33.73021         0.19518
C         37.82863        35.95337        -0.12190
C         36.55800        35.28419         0.11850
C         37.84495        37.35907        -0.38704
C         36.55932        38.03939        -0.67533
C         37.82451        40.28267        -0.69839
C         36.55184        39.53478        -0.87002
C         37.78017        41.67525        -0.60564
C         36.54926        42.42153        -0.58295
C         37.79693        44.53884        -0.19902
C         36.56857        43.80065        -0.43583
C         37.79166        45.99789        -0.02252
C         36.59957        46.70872         0.04566
C         37.80653        48.86121        -0.07046
C         36.57362        48.14864         0.06716
C         37.79516        50.28892        -0.12925
C         36.55890        50.95835        -0.10919
C         40.30511        20.23006        -0.53467
C         39.09074        20.90667        -0.47127
C         40.25980        23.04682        -0.40276
C         39.03453        22.31626        -0.41342
C         40.25875        24.47658        -0.34320
C         39.02214        25.18788        -0.36382
C         40.28431        27.28802        -0.38903
C         39.03350        26.60675        -0.41646
C         40.31896        28.73481        -0.64361
C         39.00050        29.49184        -0.71400
C         40.26523        31.62486        -0.43104
C         39.02456        30.93955        -0.46585
C         40.25253        33.03292        -0.18454
C         39.04416        33.74854         0.01283
C         40.25250        35.92835         0.02033
C         39.04890        35.21779         0.04152
C         40.33409        37.34948        -0.48669
C         39.02874        38.09443        -0.41120
C         40.25729        40.22402        -0.24483
C         39.05722        39.54440        -0.50755
C         40.34734        41.66068        -0.43156
C         39.03012        42.44538        -0.59637
C         40.24031        44.53273         0.29923
C         38.99963        43.86544        -0.22892
C         40.27796        46.01432         0.03211
C         39.04914        46.71566        -0.02378
C         40.28637        48.85810        -0.18165
C         39.04543        48.14221        -0.09911
C         40.26862        50.26780        -0.29416
C         39.05380        51.01239        -0.20436
C         40.31859        53.13031        -0.14596
C         39.10457        52.41959        -0.15437
C         42.79267        20.24184        -0.65127
C         41.52235        20.93311        -0.56398
C         42.72898        23.08856        -0.48984
C         41.49952        22.35337        -0.49812
C         42.73116        24.45899        -0.26407
C         41.49526        25.18003        -0.23450
C         42.77287        27.33536        -0.09443
C         41.50403        26.60640        -0.22564
C         42.76577        28.78995        -0.12811
C         41.55549        29.48707        -0.36885
C         42.79023        31.60068        -0.53848
C         41.51016        30.89277        -0.44826
C         42.79604        33.12539        -0.34921
C         41.51456        33.71577         0.07918
C         42.77977        35.96536         0.11949
C         41.50841        35.25168         0.26551
C         42.73131        37.39784         0.17991
C         41.52460        38.08158         0.07209
C         42.75773        40.26680         0.29710
C         41.42525        39.53875         0.42965
C         42.78032        41.69951         0.18530
C         41.55970        42.41335        -0.02607
C         42.75136        44.54760         0.08269
C         41.53390        43.80659         0.01414
C         42.73857        45.96470         0.17916
C         41.51695        46.69843         0.09483
C         42.74841        48.83608         0.09014
C         41.53880        48.14412        -0.01948
C         42.83413        50.26031        -0.21972
C         41.52231        51.01279        -0.44566
C         42.81190        53.14020        -0.28050
C         41.53215        52.46800        -0.26142
C         43.96065        20.91201        -0.80635
C         45.28383        23.18647        -0.87294
C         43.97650        22.38478        -0.87246
C         45.27588        24.56415        -0.36369
C         43.99690        25.14678         0.18012
C         45.22056        27.34396         0.53612
C         43.95906        26.64823         0.08285
C         45.24874        28.82104         0.26368
C         43.99922        29.52705         0.01644
C         45.33811        31.65559        -0.29748
C         44.02503        30.89610        -0.23686
C         45.24385        33.13573         0.04697
C         44.03913        33.82970         0.00740
C         45.23825        35.98195         0.21390
C         43.99813        35.26033         0.16438
C         45.19479        37.40489         0.25428
C         43.97985        38.11105         0.33006
C         45.22469        40.23686         0.66570
C         43.94751        39.54359         0.41659
C         45.25810        41.77253         0.54417
C         43.99367        42.44208         0.21260
C         45.24534        44.57464        -0.03666
C         43.99922        43.84739         0.05915
C         45.28798        45.94852         0.11651
C         44.01954        46.65026         0.42697
C         45.29304        48.89393         0.24367
C         44.00861        48.16935         0.44627
C         45.29619        50.29933         0.27368
C         43.97730        51.04294         0.40799
C         43.97602        52.48082        -0.05823
C         47.73450        23.18440        -0.72049
C         46.57743        22.49975        -0.91800
C         47.74529        24.59619        -0.45138
C         46.49340        25.26485        -0.21725
C         47.70895        27.37877         0.19099
C         46.50626        26.66262         0.11988
C         47.70935        28.81257         0.44991
C         46.43721        29.50119         0.40418
C         47.69549        31.71059         0.61508
C         46.36619        30.99204         0.61849
C         47.67074        33.09717         0.58974
C         46.45512        33.83196         0.31674
C         47.72735        35.95007         0.37434
C         46.47031        35.25670         0.30411
C         47.77332        37.38344         0.10183
C         46.45079        38.15759         0.08169
C         47.75525        40.27714         0.76600
C         46.47933        39.55767         0.43397
C         47.72015        41.71694         0.28141
C         46.54025        42.40469         0.17897
C         47.77312        44.54524        -0.13336
C         46.47697        43.80043        -0.45400
C         47.71792        46.06399        -0.38997
C         46.52436        46.71424        -0.04109
C         47.73970        48.88604         0.18682
C         46.51082        48.16345         0.11880
C         47.72000        50.29107         0.32840
C         46.52411        50.98787         0.32914
C         50.22883        24.68919        -0.59650
C         48.97045        25.32125        -0.35930
C         50.18914        27.42871         0.08949
C         48.96121        26.71138        -0.03648
C         50.17884        28.82169         0.46303
C         48.91252        29.51624         0.59420
C         50.13361        31.64818         0.95584
C         48.92957        30.97477         0.77308
C         50.16527        33.10267         1.19582
C         48.86977        33.85872         0.97487
C         50.19491        35.95901         0.57949
C         48.93202        35.29352         0.65482
C         50.24540        37.37234         0.41475
C         49.02479        38.11930         0.35660
C         50.23347        40.22521         0.21704
C         49.00674        39.51245         0.38604
C         50.19235        41.60989        -0.11381
C         48.97540        42.33895        -0.12645
C         50.12804        44.17632        -1.18815
C         48.93624        43.66857        -0.59872
C         50.13150        46.35913        -1.03733
C         48.92887        46.85385        -0.47905
C         50.27594        48.76437         0.20715
C         48.99271        48.18738         0.00699
C         51.40630        25.38230        -0.48545
C         52.66874        27.46884         0.03493
C         51.42690        26.76099        -0.12415
C         52.64276        28.83684         0.44317
C         51.39577        29.49476         0.65302
C         52.68846        31.64748         1.03563
C         51.39753        30.88182         1.23798
C         52.70779        33.12104         1.39515
C         51.43482        33.85582         1.01990
C         52.68956        35.87603         0.23168
C         51.42607        35.19387         0.71221
C         52.72974        37.37461         0.42524
C         51.49483        38.09796         0.40710
C         52.72938        40.26693         0.26788
C         51.46384        39.50841         0.26834
C         52.73822        41.67476        -0.18874
C         51.43716        42.20599        -0.71740
C         52.64109        44.46787        -1.26637
C         51.38211        43.69025        -0.92137
C         52.61627        46.01272        -1.03846
C         51.41731        46.81905        -0.73431
C         51.45092        48.06694        -0.05054
C         55.10654        27.52670         0.02079
C         53.92548        26.83897        -0.17113
C         55.09753        28.88193         0.43000
C         53.87367        29.53931         0.64454
C         55.15636        31.63976         1.40906
C         53.86470        30.95662         0.97833
C         55.18578        33.09423         0.97168
C         53.97430        33.81494         0.93800
C         55.20307        35.87389         0.42648
C         53.97371        35.18052         0.60930
C         55.20363        37.31997         0.27526
C         53.97433        38.02588         0.32594
C         55.25418        40.18130        -0.21340
C         54.02123        39.50787         0.31930
C         55.19728        41.67237        -0.46864
C         53.88649        42.38154        -0.36736
C         55.12148        44.56415        -0.84061
C         53.81858        43.90242        -0.43501
C         55.08013        45.89666        -1.15045
C         53.83950        46.62831        -1.09333
C         56.35170        29.59324         0.61258
C         56.39442        30.86753         1.04071
C         56.38923        33.76417         0.69904
C         56.40427        35.13275         0.46888
C         56.43761        38.06618         0.21057
C         56.49708        39.41332         0.01035
C         56.42127        42.49739        -0.52654
C         56.36545        43.83482        -0.74079
O         49.34272        33.53558         2.33916
O         50.01320        45.33281        -1.96698
O         36.51204        34.56058         1.40323
O         41.54392        34.31447         1.40348
O         55.13271        40.67968        -1.59195
O         35.05237        45.53782        -1.44874
O         47.16181        37.78968        -1.17490
O         36.56010        38.62742        -2.03881
O         53.49373        40.11632         1.54084
O         44.01087        47.40453         1.70082
O         42.83310        32.55911        -1.68958
O         42.41994        50.60563        -1.56102
O         39.89087        42.13602        -1.75009
O         29.40686        30.25162         2.17060
O         39.70962        29.08806        -1.93769
O         34.36641        47.36037         1.79354
O         44.49993        22.94560        -2.13467
O         45.22379        41.12703         1.86284
O         33.42936        33.38381        -1.61073
O         32.86723        44.93464         1.72284
O         52.74643        33.15580         2.86932
H         52.06831        32.50669         3.18056
O         53.54630        44.32745         0.93502
H         54.25503        43.97166         1.51072
O         45.83041        31.17044         1.96745
H         46.39404        30.66502         2.58976
O         46.41107        43.62699        -1.89046
H         45.54219        43.23668        -2.12003
O         55.11596        31.66642         2.86918
H         54.32497        32.21130         3.12127
O         40.10259        44.41822         1.77427
H         40.85616        44.90254         2.17629
O         45.80738        31.58227        -1.66747
H         45.09668        31.94799        -2.23898
O         52.92986        44.22759        -2.66623
H         52.20475        44.63123        -3.18954
O         45.20490        27.24314         2.01319
H         45.01312        26.29172         2.21632
O         51.35779        30.70173         2.72369
H         50.52499        30.22650         2.93605
O         52.60869        35.70860        -1.24105
H         53.38444        36.16572        -1.63165
O         35.16176        41.82758        -2.42254
H         35.87642        41.27790        -2.81015
O         47.87171        44.50400         1.32509
H         48.70946        44.93592         1.59386
O         27.74105        44.69636        -1.77889
H         27.72643        43.79185        -2.15837
O         51.45594        41.66811        -2.11162
H         52.16774        42.15693        -2.58844
O         47.80974        40.33345         2.24103
H         46.96897        40.77102         2.52849
O         44.04635        24.82829         1.65719
H         43.15629        25.03345         2.01921
O         40.62368        37.22124        -1.94379
H         39.78081        36.99700        -2.39406
O         43.65810        51.05712         1.83660
H         44.43428        51.40981         2.31973
O         41.10891        39.59622         1.87558
H         41.87132        39.21392         2.36097
H         26.96332        26.85566         0.53933
H         25.78858        29.00362         1.07364
H         25.78096        31.43698         1.07387
H         25.73777        33.32065         0.68760
H         25.71537        35.71963         0.34606
H         25.69592        37.58133         0.07249
H         25.68119        39.99868        -0.01541
H         25.71106        41.88388         0.38930
H         25.68792        44.31880         0.27716
H         26.93067        46.47384         0.37641
H         29.04007        25.62389         0.15019
H         29.02669        47.61951         0.83560
H         32.76881        23.43421        -0.25056
H         30.68295        24.65029        -0.02421
H         32.70414        49.88866         0.46697
H         30.66162        48.63774         0.41820
H         34.40611        22.48390        -0.28247
H         34.42384        50.83050         0.10177
H         36.50463        21.26976        -0.35399
H         36.51769        52.05262        -0.18596
H         40.31545        19.13141        -0.57730
H         38.16465        20.31667        -0.47120
H         40.30080        54.22482        -0.04267
H         38.17440        52.99695        -0.07394
H         42.78635        19.14185        -0.62941
H         42.82453        54.22361        -0.47696
H         44.90055        20.35724        -0.93456
H         44.92026        53.04327        -0.08766
H         48.68396        22.63834        -0.79465
H         46.60744        21.43641        -1.19177
H         48.66481        50.84762         0.38615
H         46.54513        52.08392         0.39699
H         50.27045        23.62911        -0.87684
H         50.35005        49.76973         0.64419
H         52.34726        24.85018        -0.67509
H         52.41405        48.51772         0.22687
H         56.06996        27.02367        -0.14555
H         53.97326        25.78893        -0.48731
H         56.00973        46.44493        -1.36518
H         53.90251        47.72651        -1.05783
H         57.28352        29.04725         0.39970
H         57.37104        31.33989         1.21807
H         57.34371        33.22192         0.70597
H         57.37122        35.62716         0.30968
H         57.38599        37.52146         0.31427
H         57.47182        39.91299        -0.08174
H         57.39509        41.98815        -0.49670
H         57.30019        44.40465        -0.86130
