         272
 CSIRO Nanostructure Databank - Neutral Graphene Oxide Data Set
C        -11.15792         0.53048         0.11335
C         -9.95261         1.32933        -0.13290
C         -8.79406         0.70062        -0.48429
C         -7.53653         1.46904        -0.67165
C         -6.23277         0.76539        -0.44951
C         -5.09136         1.44435        -0.14078
C         -3.85150         0.71495         0.27846
C         -2.58245         1.41170         0.80526
C         -1.28864         0.65964         0.79289
C         -0.02400         1.49694         0.99167
C          1.26985         0.71206         0.61671
C          2.47834         1.44987         1.18098
C          3.78745         0.68502         1.25414
C          5.08689         1.44608         1.24165
C          6.41811         0.72867         1.17048
C          7.67961         1.60142         0.94621
C          8.91849         0.73549         0.58535
C         10.05720         1.51710        -0.08600
C         10.95366         0.67171        -0.95640
C        -10.13355         2.83362        -0.03077
C         -8.85292         3.64702        -0.04221
C         -7.60748         2.94466        -0.42601
C         -6.35400         3.68096        -0.10178
C         -5.06991         2.93468        -0.09331
C         -3.89590         3.68407        -0.67387
C         -2.44340         2.88232         1.08726
C         -1.33084         3.64407         0.62208
C         -0.06965         2.85354         0.25751
C          1.19262         3.64268         0.59110
C          2.44497         2.95500         1.08815
C          3.76568         3.66560         0.91232
C          5.06457         2.91133         0.85983
C          6.15078         3.43918        -0.06418
C          7.50495         2.75022        -0.06467
C          8.67778         3.68714        -0.21085
C          9.39416         2.59590        -0.97119
C         -8.81565         4.98318         0.23071
C         -7.62477         5.82321         0.05867
C         -6.38995         5.14105        -0.42768
C         -5.07933         5.88499        -0.51377
C         -3.81237         5.14051        -0.29927
C         -2.64495         5.74056         0.11810
C         -1.38809         5.01180         0.31367
C         -0.08146         5.66137        -0.17406
C          1.14651         4.98251         0.40059
C          2.37607         5.79611         0.43809
C          3.68981         5.08393         0.42587
C          4.75678         5.67369        -0.50003
C          6.06078         4.86546        -0.56725
C          7.30372         5.66925        -0.98921
C          8.60575         4.97839        -0.60712
C         -7.60199         7.15183         0.37743
C         -6.41822         8.01674         0.14498
C         -5.12166         7.36672        -0.30589
C         -3.81955         8.06392        -0.05539
C         -2.59848         7.25652         0.35204
C         -1.37496         7.69206        -0.45841
C         -0.08201         7.18607         0.11478
C          1.14959         8.00138         0.33135
C          2.37960         7.21641        -0.11036
C          3.74635         7.75217         0.27137
C          4.88755         7.13463        -0.14926
C          6.10832         7.87261        -0.44135
C          7.24600         7.16560        -0.73486
C         -6.28774         9.32752         0.82624
C         -5.12828        10.01915         0.89540
C         -3.81943         9.50096         0.42067
C         -2.57261        10.11511         0.98963
C         -1.34342         9.99043         0.49148
C         -0.14975        10.21913        -0.03976
C          1.19403         9.56580         0.31905
C          2.32813        10.10741        -0.56204
C          3.62122         9.83966        -0.23599
C          4.91954        10.11961        -0.85268
C          6.02066         9.31052        -0.76059
C        -11.08787        -0.80296         0.28920
C         -9.73997        -1.49071         0.24944
C         -8.84129        -0.79573        -0.80520
C         -7.46744        -1.48821        -0.85436
C         -6.17249        -0.67055        -0.93493
C         -4.93494        -1.46142        -0.57291
C         -3.71836        -0.71992        -0.14179
C         -2.37801        -1.37427        -0.29399
C         -1.18118        -0.74846         0.33114
C         -0.03436        -1.45451         0.52898
C          1.20474        -0.76487         0.99811
C          2.49856        -1.51984         1.04820
C          3.80803        -0.76392         0.75412
C          5.02226        -1.54979         1.33375
C          6.37952        -0.78103         1.16439
C          7.52775        -1.44553         0.45686
C          8.87687        -0.76504         0.48940
C         10.08605        -1.52245        -0.09899
C         10.90032        -0.65977        -1.04125
C         -9.81224        -2.98375         0.04157
C         -8.67149        -3.68179        -0.22440
C         -7.40857        -2.94317        -0.52197
C         -6.13253        -3.49456         0.10068
C         -4.90469        -2.82362        -0.48624
C         -3.68054        -3.51098        -1.06240
C         -2.33965        -2.81630        -0.70077
C         -1.10341        -3.61871        -0.36324
C         -0.06196        -2.94922         0.49788
C          1.16177        -3.72247         0.87352
C          2.49346        -2.98832         0.60872
C          3.79036        -3.70946         0.90506
C          5.01828        -3.00039         0.83674
C          6.19840        -3.64921         0.44502
C          7.40992        -2.88769         0.08230
C          8.62289        -3.60098        -0.40985
C          9.77053        -2.86553        -0.69585
C         -8.57478        -5.11830        -0.30972
C         -7.35788        -5.77677        -0.25113
C         -6.11185        -5.06132         0.24731
C         -4.71894        -5.74853        -0.09475
C         -3.65047        -5.04368        -0.94217
C         -2.34366        -5.80744        -0.99600
C         -1.04574        -5.09618        -0.63215
C         -0.05984        -5.97601         0.14865
C          1.14068        -5.24017         0.77693
C          2.47166        -5.93634         0.91638
C          3.80027        -5.19089         1.21013
C          5.06548        -5.90253         0.66786
C          6.12996        -5.07380        -0.03693
C          7.51729        -5.80310         0.01439
C          8.54900        -4.97074        -0.67949
C         -7.32465        -7.21932        -0.14752
C         -6.14267        -7.91322        -0.07487
C         -4.88394        -7.21983        -0.46632
C         -3.62397        -8.02273        -0.61867
C         -2.27363        -7.35467        -0.93623
C         -1.09581        -7.84959        -0.09948
C          0.26054        -7.30877        -0.49094
C          1.35081        -8.01191        -0.07146
C          2.55470        -7.36907         0.49207
C          3.82440        -8.11827         0.28591
C          5.10742        -7.36012         0.31590
C          6.25715        -7.92481        -0.44939
C          7.39666        -7.19827        -0.56738
C         -6.08359        -9.33115         0.18259
C         -4.90291       -10.00648         0.25731
C         -3.61788        -9.38092        -0.00905
C         -2.45644        -9.94386         0.42627
C         -1.10977        -9.39696         0.02957
C          0.09142        -9.97274         0.80302
C          1.34957        -9.47631         0.10681
C          2.49535       -10.14817        -0.15558
C          3.66716        -9.31776        -0.65636
C          4.98801       -10.01512        -0.86790
C          6.14882        -9.32371        -0.86863
O         -3.11500        -5.53101        -2.20688
O          5.53737        -6.88045         1.63462
O         -3.16449         3.15641        -1.49854
O          3.80879         8.99032         0.88983
O          0.37522         7.49007         1.46939
O         -7.56538         2.41831        -1.79878
O         -2.11403         0.72491         2.01534
O          7.11358        -1.77220        -0.90737
O         -2.06070        -1.75848        -1.67253
O         -1.43663         7.91747        -1.65992
O          0.20514        -3.34813         1.89891
O          6.69532        -0.06884         2.37840
O          3.24951         5.83557         1.60940
O         -0.97876        -6.83430         1.05579
O         -0.46989        -4.18386        -1.58372
O         -7.39064        -2.51617        -1.92457
O         -3.63949         9.15649        -0.98679
O          4.44557         1.05251         2.49041
O          1.80340        -1.16354         2.26518
O          3.14778        -8.22753         1.54905
O          8.01918         2.12462        -1.34940
O         -5.66839         3.44596         1.17013
O         -4.50037        -7.75462        -1.77619
O         -5.96863         8.04559        -1.25650
O          2.29481         2.26959         2.35580
O         -5.82410         5.47161        -1.71653
O          4.72299         3.69954         2.02854
O          5.76589         3.70326        -1.44377
O         -6.36864        -5.37514         1.61285
O          1.54508        -5.81605         2.05054
O         -4.11042        -0.35624         1.24365
O          9.26261        -0.10076         1.73043
O          3.96007        -0.68627        -0.68377
H          3.16240        -0.22108        -1.04771
O         -3.89791        -3.23011        -2.47084
H         -3.28728        -3.80834        -2.98407
O          3.30269        -8.72592        -1.94017
H          3.04350        -9.44946        -2.54814
O         -0.85842        -9.89844        -1.31404
H         -1.38835        -9.36044        -1.95667
O          1.49772         0.65217        -0.82138
H          0.93221         1.32141        -1.29161
O          1.48677         9.95145         1.67239
H          0.96768         9.37140         2.27030
O         -4.01645        -5.78244         1.18187
H         -4.74388        -5.74919         1.87108
O         -2.42038         7.47085         1.76568
H         -1.50022         7.24026         2.02602
O          4.78707        -1.68800         2.73662
H          5.00429        -0.82628         3.16770
O          3.96409        -5.19065         2.65012
H          3.06321        -5.22489         3.05050
O          2.23145         7.28278        -1.54523
H          2.95605         6.76464        -1.97858
O          7.36479         5.57728        -2.44511
H          7.18859         4.63726        -2.67718
O         -3.26188         3.42848         1.98043
H         -3.94119         2.79615         2.29932
O          2.49032        -2.96068        -0.86152
H          3.25514        -2.40753        -1.15769
O         -0.12873         2.64834        -1.17429
H         -0.19556         3.53823        -1.60957
O         -0.03354         5.44931        -1.60853
H         -0.51894         6.18651        -2.05510
O        -10.93099         3.16692         1.11254
H        -10.51849         2.76761         1.90542
O          5.71194        -5.03543        -1.43203
H          6.26964        -4.38201        -1.90595
O          4.20626         5.59337        -1.85176
H          4.54385         4.77057        -2.27605
O          0.09999        -9.53952         2.16004
H          0.18948        -8.56171         2.18045
O         -6.16166        -2.95222         1.44699
H         -6.28844        -3.74593         2.04271
O          7.96864         2.22862         2.20503
H          7.95526         1.51756         2.88654
O         -5.94561        -0.43495        -2.36477
H         -6.08756        -1.30168        -2.81409
O         10.85370         2.16818         0.91828
H         10.24626         2.49704         1.61658
O         -9.45163        -0.91330        -2.09962
H         -8.99353        -1.64936        -2.56849
O         -1.96556        -7.74875        -2.29892
H         -2.74944        -7.48153        -2.83609
O         10.98614        -1.83694         1.00201
H         10.87523        -1.11826         1.66921
O         -0.02038         1.85872         2.37320
H          0.01618         1.05020         2.92637
O         -9.08365        -1.25416         1.53177
H         -9.45127        -1.88287         2.18710
O          7.94941        -5.88854         1.39380
H          7.24775        -6.38472         1.88650
H         11.59100        -1.18714        -1.71695
H         11.66120         1.22979        -1.59047
H          9.99736         2.90073        -1.85602
H          9.50694         5.43012        -1.05472
H          8.13857         7.71341        -1.07588
H          6.95428         9.72125        -1.18110
H          5.04811        11.09348        -1.35226
H          2.07942        10.72356        -1.43770
H         -0.08632        11.06118        -0.75717
H         -2.70191        10.75062         1.88587
H         -5.11796        10.98091         1.43163
H         -7.19469         9.75266         1.28322
H         -8.50347         7.62121         0.80146
H         -9.74273         5.48785         0.54344
H        -10.73465         3.14651        -0.93025
H        -12.11565         1.06429         0.19974
H        -11.98946        -1.38981         0.52380
H        -10.75882        -3.51299         0.23565
H         -9.50305        -5.70683        -0.38573
H         -8.28041        -7.75778        -0.04317
H         -7.02760        -9.85593         0.39250
H         -4.89835       -11.06891         0.54286
H         -2.48818       -10.91546         0.94317
H          0.03972       -11.08853         0.79616
H          2.60198       -11.22722         0.02985
H          4.98449       -11.07607        -1.16257
H          7.08525        -9.83077        -1.14931
H          8.28189        -7.63965        -1.05172
H          9.38867        -5.46375        -1.19372
H         10.63707        -3.40820        -1.10567
