         264
 CSIRO Nanostructure Databank - Neutral Graphene Oxide Data Set
C        -11.26231         0.41215        -0.39334
C        -10.06145         1.29817        -0.12596
C         -8.76609         0.58823        -0.48720
C         -7.55113         1.38739        -0.12746
C         -6.27148         0.66648         0.12826
C         -5.00620         1.35863        -0.25222
C         -3.74876         0.84886         0.36696
C         -2.46489         1.57558         0.15085
C         -1.18046         0.88925         0.62745
C          0.11429         1.49633         0.18565
C          1.39266         0.82428         0.61478
C          2.61050         1.43243        -0.03515
C          3.89158         0.69381         0.05181
C          5.16215         1.47173         0.22939
C          6.43869         0.72531         0.08765
C          7.68623         1.48096        -0.29153
C          8.96719         0.70951        -0.17965
C         10.25727         1.44906        -0.18903
C         11.45825         0.64050        -0.56638
C        -10.12003         2.76113        -0.70638
C         -8.86215         3.58417        -0.40243
C         -7.59229         2.82079        -0.60801
C         -6.31711         3.57398        -0.71494
C         -5.03229         2.79004        -0.63436
C         -3.76267         3.58908        -0.67597
C         -2.44388         2.85102        -0.65012
C         -1.16130         3.61662        -0.71436
C          0.13103         2.85564        -0.47989
C          1.41127         3.65659        -0.54980
C          2.66925         2.93419        -0.22011
C          3.88979         3.68002         0.30299
C          5.17601         2.95911        -0.17874
C          6.46804         3.65172         0.39197
C          7.71102         2.97723        -0.22139
C          9.03921         3.66167        -0.16431
C         10.19501         2.94673        -0.23821
C         -8.83183         4.94970        -0.31991
C         -7.59264         5.75169        -0.26782
C         -6.33774         4.93053         0.00413
C         -5.02538         5.74208        -0.01963
C         -3.78002         5.06658        -0.49973
C         -2.46955         5.82762        -0.59475
C         -1.19400         5.07235        -0.24856
C          0.05737         5.87702        -0.56844
C          1.36180         5.16097        -0.54532
C          2.60439         5.90295        -0.20514
C          3.87671         5.11495        -0.23986
C          5.17213         5.83145        -0.32490
C          6.45003         5.24656         0.32239
C          7.70435         5.91417        -0.27293
C          9.05306         5.19294        -0.11749
C         -7.54732         7.11899        -0.26079
C         -6.27305         7.95354        -0.44327
C         -5.01932         7.22933        -0.00785
C         -3.70251         7.99212        -0.05710
C         -2.46519         7.32435        -0.57299
C         -1.16821         8.13727        -0.54129
C          0.03379         7.31289        -0.10786
C          1.32040         8.01031         0.19790
C          2.59437         7.24685         0.03078
C          3.87978         7.97909         0.20503
C          5.11463         7.32976        -0.36241
C          6.39990         8.06239        -0.49747
C          7.65724         7.24380        -0.54712
C         -6.22876         9.38518         0.08647
C         -5.08010        10.08016         0.24781
C         -3.71484         9.47388         0.16059
C         -2.43213        10.22148         0.03868
C         -1.20486         9.55016        -0.00829
C          0.10952        10.17969         0.16470
C          1.29904         9.50259         0.21012
C          2.60684        10.29294         0.30971
C          3.89849         9.46464         0.36803
C          5.20683        10.15448         0.12461
C          6.36251         9.50981        -0.14477
C        -11.20626        -0.91944        -0.57565
C         -9.96098        -1.70112        -0.96512
C         -8.68094        -0.89619        -0.67748
C         -7.48339        -1.62375        -0.10213
C         -6.24082        -0.84913         0.28713
C         -4.86367        -1.56539         0.43202
C         -3.64150        -0.64591         0.36192
C         -2.33932        -1.35196         0.56008
C         -1.16718        -0.56069         1.07665
C          0.08958        -1.28715         1.63918
C          1.39851        -0.58732         1.16106
C          2.61091        -1.45289         0.88743
C          3.87356        -0.77139         0.43895
C          5.20989        -1.45408         0.51700
C          6.36932        -0.75207        -0.17594
C          7.65061        -1.47318        -0.41862
C          8.92213        -0.70464        -0.68587
C         10.16877        -1.47569        -0.97799
C         11.43305        -0.69080        -0.81591
C         -9.90159        -3.15977        -0.55224
C         -8.71779        -3.86759        -0.42424
C         -7.48230        -3.13218        -0.05810
C         -5.53431        -2.76488        -1.79528
C         -4.60313        -2.68930        -0.59885
C         -3.43330        -3.58872        -0.20303
C         -2.29132        -2.87454         0.50123
C         -1.31694        -3.55962         1.46975
C          0.06020        -2.84873         1.56584
C          1.35192        -3.62525         1.54433
C          2.66012        -2.87702         1.41087
C          3.92444        -3.64642         1.16995
C          5.15917        -2.94367         0.62921
C          5.83796        -3.71352        -0.50156
C          7.98165        -2.86223         0.10589
C          8.95264        -3.67368        -0.69024
C         10.09114        -2.98180        -1.04293
C         -8.64431        -5.29909        -0.34501
C         -7.43555        -6.05048        -0.37121
C         -6.14912        -5.48940        -0.96733
C         -4.80818        -5.93713        -0.36391
C         -3.56256        -5.11035        -0.08842
C         -2.56699        -5.74415         0.90925
C         -1.19278        -5.02175         0.96467
C          0.11238        -5.78568         0.95199
C          1.39231        -5.14273         1.42544
C          2.69010        -5.90760         1.33519
C          3.98657        -5.15953         1.14223
C          5.15624        -5.88686         0.54279
C          6.10791        -5.21183        -0.45021
C          7.52930        -5.78305        -0.42584
C          8.72239        -5.11437        -0.69427
C         -7.41717        -7.38960         0.00710
C         -6.18914        -8.18415        -0.05055
C         -4.86887        -7.42202        -0.02687
C         -3.69398        -8.13070         0.58935
C         -2.45616        -7.30312         0.77326
C         -1.16977        -7.99455         0.39908
C          0.12783        -7.28795         0.64294
C          1.36002        -8.12927         0.88963
C          2.67967        -7.40397         1.01223
C          3.88875        -8.04667         0.42614
C          5.05402        -7.33835         0.22496
C          6.27041        -7.94815        -0.28218
C          7.45819        -7.22397        -0.45210
C         -6.13140        -9.62197         0.32860
C         -4.96753       -10.29968         0.31629
C         -3.59143        -9.66959         0.44156
C         -2.47188        -9.98423        -0.57040
C         -1.17042        -9.45601         0.03655
C          0.00647       -10.10047        -0.10376
C          1.31062        -9.63358         0.51505
C          2.57337       -10.06707        -0.19482
C          3.77945        -9.40919        -0.08428
C          5.00581       -10.02464        -0.55976
C          6.19324        -9.35437        -0.59782
O         -4.93889         1.72352        -1.65172
O         -1.76744         3.07965        -1.91540
O          5.70706        -2.12276         1.70139
O          0.69292        -3.32009         2.80033
O          0.72985         5.63861        -1.81132
O         -1.39244         0.53914         2.01002
O         -8.49912         0.02624        -1.81302
O         -3.46277         8.51640         1.28778
O          5.60413        -5.68616        -1.73505
O         -4.45860        -2.14476        -1.99322
O          5.14104        -5.59563         1.95490
O         -4.98709         6.48000         1.23362
O         -7.05051         3.24127        -1.92350
O         -3.21937        -7.81069         1.92677
O         -0.38250        -5.05707        -0.22465
O          3.99780         8.58197         1.53850
O          6.47181         5.76047         1.61552
O          0.42831         7.45233         1.27968
O         -7.20095        -1.22625         1.29756
O         -6.18831        -4.91665        -2.03917
O          1.64348         0.57829         2.02391
O         -6.58904        -3.73514         0.54426
O          7.80648        -3.18851         1.26979
O         -2.74701        -0.90857        -0.77018
O          2.03158        -8.04698         2.17118
O          2.99457        -1.48428        -0.51468
O         -7.01343         1.29733         1.21783
O          0.15619         1.64037        -1.26744
O         -5.34968        -8.03128        -1.25380
O         -3.28905         1.76143         1.38066
O         -2.51718         6.60133        -1.82592
O         -3.94912         4.47168        -1.82688
O         -6.53310         4.54243         1.34582
O         -3.70709        -5.77755        -1.34186
O          4.61352         5.24732        -1.50809
O          5.89117         1.04531         1.40618
O          2.33538         3.23406        -1.60642
O          5.50840         7.83825        -1.67354
O          9.35249        -0.85636        -2.06568
O         -0.97160         8.75332        -1.80341
O          9.66641         0.90321         1.07751
O          3.20108         0.83739        -1.22491
O          2.01951        -5.67963         2.61261
O          6.71571        -1.19833        -1.50619
O          3.56947        -3.13911         2.49701
O         -2.18240        -3.29572        -0.88449
O          7.55714         2.27900        -1.49988
O         -0.40943        -7.39731        -0.71438
O          5.21098         2.95527        -1.60069
H          4.30731         2.82270        -1.96715
O          9.97939         5.70188        -1.07487
H          9.70575         5.39757        -1.96476
O          1.36213       -10.40171         1.75509
H          1.92055        -9.88440         2.38478
O         -9.98407         1.43088         1.31442
H        -10.80384         1.85652         1.63984
O          2.68601        11.20848        -0.78979
H          2.62775        10.70704        -1.62922
O          6.51030         3.35410         1.79440
H          6.69155         4.22519         2.25636
O         -3.08862       -10.24652         1.66925
H         -3.30134        -9.63874         2.41282
O         -1.18969         4.91614         1.20059
H         -0.96624         5.77273         1.63016
O         -3.23227        -5.47218         2.15037
H         -2.68107        -5.76530         2.90520
O         -1.88177        -3.47950         2.77947
H         -1.16703        -3.24882         3.41567
O        -10.07456        -1.85436        -2.41257
H         -9.63790        -1.06476        -2.81544
O         -2.74216        -9.30159        -1.78620
H         -1.90701        -9.13521        -2.26808
O          5.70050        -3.23917        -1.62118
H          5.70610        -4.93739        -2.37373
O        -10.26675         2.70655        -2.12717
H         -9.38419         2.56848        -2.53280
O          3.82092         3.67379         1.73131
H          4.74098         3.55478         2.09054
O         -4.80474        -2.13320         1.74423
H         -5.69912        -2.48457         1.96440
O          0.03687        -1.08309         3.05950
H          0.12833        -0.11804         3.22954
O         -6.11737         8.08378        -1.89114
H         -6.92382         8.50420        -2.25603
H         12.38329        -1.21424        -1.00544
H         12.43243         1.15453        -0.55063
H         11.15248         3.49094        -0.28114
H          9.44552         5.48930         0.89504
H          8.58471         7.75643        -0.85202
H          7.29855        10.08476        -0.21859
H          5.21960        11.24479         0.27505
H          2.56400        10.92319         1.23724
H          0.13266        11.27910         0.23609
H         -2.44333        11.29874         0.27443
H         -5.13611        11.14293         0.53406
H         -7.18563         9.91663         0.21710
H         -8.49787         7.67178        -0.36633
H         -9.78468         5.50537        -0.31959
H        -11.03157         3.26495        -0.29099
H        -12.25049         0.88057        -0.25084
H        -12.15344        -1.47568        -0.66485
H        -10.84229        -3.72534        -0.66221
H         -9.59209        -5.85778        -0.26569
H         -8.31389        -7.84569         0.45702
H         -7.08562       -10.16385         0.41689
H         -4.98921       -11.38853         0.47715
H         -2.38639       -11.09517        -0.73884
H          0.01112       -11.12728        -0.50343
H          2.57400       -11.08583        -0.61420
H          4.95877       -11.07540        -0.88141
H          7.10167        -9.86583        -0.94838
H          8.37407        -7.78427        -0.70050
H          9.60165        -5.75105        -0.89577
H         10.95727        -3.51626        -1.46816
