         762
 CSIRO Nanostructure Databank - Neutral Graphene Oxide Data Set
C         24.32218        25.54456         4.80732
C         23.45953        26.39454         5.50132
C         24.66902        28.26147         4.59038
C         23.68168        27.77081         5.44778
C         24.48555        30.36063         3.62936
C         23.43776        31.27511         4.02611
C         23.37683        32.21754         1.76570
C         22.85559        32.10908         3.13950
C         23.18040        33.52682         1.07109
C         22.16035        34.42343         1.43644
C         22.68496        35.91433        -0.40496
C         21.95404        35.63027         0.75402
C         22.64943        37.24716        -1.18309
C         21.44627        38.07142        -0.80975
C         22.74183        40.11859        -0.59459
C         21.49492        39.42213        -0.65008
C         22.84924        41.55877        -0.64167
C         21.81244        42.21418        -1.41430
C         22.99200        44.35647        -1.32827
C         21.94423        43.48254        -1.85993
C         23.25768        45.64258        -2.01696
C         22.49159        46.15211        -3.02176
C         23.44395        48.39593        -2.82328
C         22.67556        47.50835        -3.49758
C         26.09148        23.76601         3.07783
C         26.46898        25.12307         3.63018
C         25.32558        26.04779         3.96808
C         26.31295        27.97745         2.67618
C         25.44385        27.44484         3.74236
C         25.92672        29.19021         1.87352
C         24.97360        30.25051         2.35350
C         25.61739        31.84925         0.49489
C         24.49749        31.27559         1.36084
C         25.18239        33.01323        -0.40803
C         23.98296        33.82389        -0.04958
C         25.43013        35.94475        -1.44196
C         23.61660        34.94781        -0.81558
C         25.24038        37.32196        -1.01218
C         23.97956        37.98230        -0.92207
C         25.11123        40.02020        -0.03708
C         23.95615        39.36346        -0.55418
C         25.14394        41.48873         0.44171
C         24.00034        42.23959        -0.23682
C         25.34993        44.42143        -0.14448
C         24.07342        43.70127        -0.40513
C         25.33177        45.89034        -0.49016
C         24.38272        46.46137        -1.50490
C         25.26033        48.85207        -0.98744
C         24.22118        47.96213        -1.64057
C         25.48792        50.26414        -1.35505
C         28.35387        23.39746         2.23390
C         27.05492        22.92252         2.59782
C         28.53492        24.86329         2.16136
C         27.56299        25.80870         2.79823
C         28.25361        27.63177         1.17287
C         27.32652        27.16149         2.18182
C         28.06469        28.81730         0.45683
C         26.77001        29.53117         0.61562
C         27.78138        31.47815        -0.73395
C         26.50181        30.79288        -0.25998
C         27.69323        32.92079        -1.09254
C         26.39507        33.68223        -1.03918
C         27.74233        35.82941        -0.67755
C         26.51860        35.17123        -1.09790
C         27.72616        37.31331        -0.52060
C         26.37325        37.93731        -0.41663
C         28.02976        40.24125         0.47125
C         26.16012        39.15312         0.25003
C         27.76241        41.61748         0.19569
C         26.50934        42.24872         0.27302
C         27.79905        44.40158         0.57419
C         26.48891        43.72120         0.22837
C         27.95025        45.86527         0.71570
C         26.08454        46.92122         0.25984
C         27.58596        48.88411         0.20301
C         26.31463        48.18351        -0.18807
C         27.64596        50.34666        -0.09853
C         26.52207        50.96370        -0.85552
C         30.49189        20.38043         1.52268
C         29.43751        21.15235         1.97276
C         30.46536        23.12747         0.97045
C         29.39708        22.55784         1.73757
C         30.38907        24.52215         0.59487
C         29.42605        25.36633         1.11658
C         30.42190        27.32437        -0.17966
C         29.46184        26.81821         0.89044
C         30.30089        28.71438        -0.68769
C         29.12133        29.40465        -0.36424
C         30.24980        31.47131        -1.12887
C         28.97169        30.78742        -0.81531
C         30.25536        32.96140        -0.99535
C         28.97168        33.73055        -1.05880
C         30.17138        35.76861        -0.16451
C         28.94932        35.16260        -0.66870
C         30.26084        37.22564         0.15363
C         29.02769        38.02278        -0.18492
C         30.36953        40.13230        -0.21252
C         29.13361        39.48695         0.09896
C         30.27714        41.58296        -0.46558
C         28.98591        42.33237        -0.27427
C         30.25816        44.56592        -0.17621
C         29.08816        43.74254         0.18903
C         30.23683        45.94977        -0.14212
C         29.00927        46.62409         0.28153
C         30.16371        48.85788        -0.31410
C         28.88708        48.09952         0.00909
C         30.17807        50.34774        -0.26012
C         28.96091        51.05032        -0.18899
C         30.16095        53.15685        -0.17743
C         28.96855        52.45419        -0.12369
C         32.73871        18.76347         0.45087
C         32.66689        20.13923         0.26424
C         31.57335        20.93744         0.78444
C         32.57542        22.93396        -0.32812
C         31.54325        22.33296         0.50826
C         32.25185        24.11680        -0.97452
C         31.23765        24.98815        -0.47592
C         32.87164        27.29811        -1.71629
C         31.10299        26.28617        -0.93778
C         32.75216        28.67213        -1.40373
C         31.52848        29.35495        -1.16004
C         32.73677        31.55121        -1.11733
C         31.56792        30.78612        -1.03932
C         32.77417        32.92505        -0.51103
C         31.41647        33.55972        -0.29478
C         33.11365        35.98153         0.26309
C         31.21653        34.93785         0.15053
C         32.94505        37.35188         0.02257
C         31.61570        38.00531         0.19652
C         32.84185        40.16451        -0.29563
C         31.59471        39.46021        -0.13917
C         32.82325        41.63964        -0.15392
C         31.52339        42.37106        -0.24954
C         32.73010        44.58828        -0.77139
C         31.45775        43.82487        -0.60720
C         32.70113        46.04619        -0.53253
C         31.46803        46.72053        -0.34557
C         32.68285        48.86431        -0.38012
C         31.47011        48.14014        -0.27882
C         32.66959        50.33527        -0.43759
C         31.40248        51.05720        -0.35068
C         32.62629        53.24343        -0.44362
C         31.39159        52.48388        -0.31551
C         32.69678        54.62041        -0.32966
C         35.12017        18.60491        -0.10143
C         33.91884        18.00602         0.22215
C         35.11651        20.02309        -0.49509
C         33.78895        20.81514        -0.42048
C         35.06349        22.94102        -0.85757
C         33.84477        22.28377        -0.55160
C         35.18551        24.39280        -1.10039
C         34.11885        25.14917        -1.59098
C         35.28946        27.31054        -1.28209
C         34.07674        26.58017        -1.57073
C         35.29882        28.70301        -1.38998
C         34.01970        29.41386        -1.60695
C         35.30902        31.69905        -1.55515
C         33.98984        30.93582        -1.57032
C         35.28718        32.98436        -0.74070
C         34.00914        33.78699        -0.83992
C         35.31987        35.95179        -0.59967
C         34.16962        35.21224        -0.27246
C         35.32776        37.36812        -0.52893
C         34.10276        38.07219        -0.37578
C         35.32780        40.23474        -0.60370
C         34.07364        39.51314        -0.43185
C         35.34258        41.64248        -0.66505
C         34.10619        42.39988        -0.34409
C         35.23509        44.58629        -1.12823
C         34.03597        43.86816        -0.60952
C         35.19105        46.07089        -0.94337
C         33.91391        46.76319        -0.58626
C         35.18240        48.90446        -0.92350
C         33.91330        48.16228        -0.52359
C         35.14464        50.32202        -0.42167
C         33.84872        51.03318        -0.58136
C         35.18551        53.26567        -0.68617
C         33.85896        52.49919        -0.73340
C         35.15643        54.69546        -0.34192
C         33.92956        55.32729        -0.28004
C         37.61451        15.85413        -0.77987
C         36.41770        16.48184        -0.42044
C         37.59213        18.58618        -0.05388
C         36.39178        17.88434        -0.15729
C         37.55459        20.06552         0.04019
C         36.33904        20.82349        -0.39669
C         37.56584        22.96395        -0.71220
C         36.29943        22.18525        -0.68423
C         37.61658        24.43621        -0.61376
C         36.42641        25.14187        -0.87999
C         37.73958        27.25858        -0.90413
C         36.49243        26.56403        -1.00608
C         37.79293        28.70828        -1.10491
C         36.53650        29.44544        -1.28008
C         37.79576        31.57687        -1.33704
C         36.52547        30.83129        -1.23817
C         37.78637        32.98945        -0.83790
C         36.51583        33.75642        -1.02630
C         37.85255        35.92958        -0.62748
C         36.57033        35.24086        -0.95133
C         37.80742        37.39256        -0.57106
C         36.57959        38.09039        -0.64280
C         37.80475        40.24111        -0.78441
C         36.56953        39.52039        -0.68820
C         37.77513        41.65884        -0.94999
C         36.54849        42.34733        -0.92088
C         37.82896        44.58051        -0.96881
C         36.53501        43.81677        -1.17411
C         37.76672        46.00669        -0.51692
C         36.45793        46.76089        -0.54597
C         37.71101        48.89187        -0.44028
C         36.49364        48.21865        -0.59059
C         37.73905        50.32480        -0.31484
C         36.43658        51.04430        -0.25542
C         37.69101        53.23926        -0.02696
C         36.47207        52.51677        -0.49356
C         37.59321        54.69126         0.21608
C         36.41799        55.39110        -0.06806
C         37.67965        57.49692        -0.08659
C         36.47080        56.81823        -0.12438
C         39.98591        15.01486        -2.35368
C         40.04268        15.81208        -1.18525
C         38.85872        16.47175        -0.63112
C         40.14484        18.61125         0.05002
C         38.87277        17.78373         0.19806
C         40.07685        20.04908        -0.41442
C         38.84768        20.80090         0.09534
C         39.77485        23.11861         0.41134
C         38.81073        22.26015        -0.25716
C         40.01786        24.42838         0.10736
C         38.85521        25.12558        -0.43093
C         40.23990        27.18834        -0.55958
C         38.91149        26.52650        -0.60316
C         40.27012        28.66260        -0.80224
C         39.00853        29.38225        -1.07434
C         40.45412        31.58530        -1.25404
C         39.10569        30.83002        -1.35579
C         40.35376        33.03038        -0.75242
C         39.05523        33.72139        -0.55124
C         40.27520        35.87060         0.04749
C         39.00586        35.21540        -0.44761
C         40.24278        37.40718        -0.05554
C         39.01707        38.12833        -0.45342
C         40.32865        40.22407        -0.73965
C         39.04966        39.52782        -0.64171
C         40.35151        41.67602        -1.06877
C         39.04656        42.41814        -1.11236
C         40.28908        44.55829        -0.29775
C         39.05147        43.83305        -0.72553
C         40.26304        46.03198        -0.73779
C         39.01166        46.78967        -0.55523
C         40.22657        48.91642        -0.20966
C         38.98414        48.17183        -0.41055
C         40.16882        50.32205         0.11031
C         38.91862        50.99906         0.03892
C         40.08871        53.15294         0.90595
C         38.83192        52.41793         0.49702
C         40.08508        54.66203         0.92673
C         38.80643        55.42830         0.60551
C         40.16957        57.49590         0.18135
C         38.89029        56.84407         0.21876
C         40.24681        58.85277        -0.22256
C         42.42502        14.96608        -2.49437
C         41.16391        14.56678        -2.95532
C         42.53896        15.75466        -1.33084
C         41.33522        16.02003        -0.65202
C         42.63694        18.53518        -0.30229
C         41.37327        17.99757         0.12694
C         42.68655        19.99919        -0.28494
C         41.42301        20.77466        -0.17163
C         42.66924        22.85868         0.45404
C         41.58464        22.04024         0.58230
C         42.61472        24.32755         0.79110
C         41.29762        25.10439         0.55616
C         42.77051        27.21493         0.05504
C         41.42070        26.56462         0.16955
C         42.79625        28.65815        -0.50178
C         41.42848        29.39736        -0.14294
C         42.63152        31.61914         0.14769
C         41.48760        30.85799        -0.44600
C         42.74088        33.06886        -0.28885
C         41.54013        33.75778        -0.56917
C         42.77095        36.00044        -0.36261
C         41.48318        35.27862        -0.72033
C         42.79998        37.36756        -0.27388
C         41.54197        38.15241        -0.19689
C         42.84338        40.22226        -0.98045
C         41.52569        39.56058        -0.62336
C         42.84738        41.72598        -0.75746
C         41.60557        42.45856        -0.82264
C         42.80112        44.63546        -0.63586
C         41.56182        43.83941        -0.69185
C         42.78514        46.06639        -0.24582
C         41.57726        46.83029        -0.57311
C         42.69994        48.96404         0.12660
C         41.45974        48.24947        -0.22986
C         42.59166        50.33835         0.62604
C         41.37500        51.02272         0.53261
C         42.59022        53.16635         0.94149
C         41.36938        52.43615         0.81209
C         42.55487        54.61771         0.90879
C         41.37908        55.36083         0.75478
C         42.62011        57.47847         0.33680
C         41.38394        56.77896         0.46945
C         42.65142        58.80248        -0.11812
C         41.46498        59.48959        -0.39221
C         45.02578        15.80791        -1.25754
C         43.80924        16.42841        -0.96773
C         45.09732        18.55039        -0.59980
C         43.82674        17.81916        -0.56949
C         45.17193        19.92629        -0.29211
C         43.95668        20.63261         0.14675
C         45.18957        22.84704         0.12657
C         43.94559        22.11881         0.31952
C         45.18579        24.21492         0.44675
C         43.95220        25.07469         0.73546
C         45.20185        27.36791         0.31555
C         43.95071        26.57491         0.39505
C         45.23591        28.76075         0.01420
C         43.97805        29.48321        -0.05003
C         45.16882        31.59547         0.34452
C         43.93535        30.84440         0.03589
C         45.13162        33.06252         0.26646
C         43.97303        33.75160        -0.06691
C         45.23932        35.98492         0.19432
C         44.02678        35.22779        -0.27589
C         45.17439        37.44886         0.33279
C         44.03068        38.13266        -0.09537
C         45.24978        40.27240        -0.24305
C         44.03325        39.54657        -0.33149
C         45.30093        41.70370        -0.37287
C         44.03965        42.38975        -0.50667
C         45.19271        44.43760         0.38242
C         44.08921        43.86229        -0.47780
C         45.12988        45.95220         0.47621
C         43.95761        46.68797         0.23385
C         45.08188        48.86657         1.12704
C         43.97940        48.18315         0.37516
C         45.05624        50.22830         1.31161
C         43.73992        50.98841         1.35841
C         45.06975        53.18846         1.24667
C         43.82547        52.47925         1.09510
C         45.07869        54.58647         1.20172
C         43.81788        55.33290         1.12534
C         45.18567        57.39959         0.48175
C         43.86161        56.83511         0.81140
C         46.25537        16.47872        -1.15896
C         47.58995        18.56914        -0.78649
C         46.32447        17.84726        -0.86432
C         47.60795        19.97856        -0.53542
C         46.38598        20.67434        -0.30522
C         47.64112        22.80042        -0.16928
C         46.39116        22.10099        -0.09730
C         47.66278        24.19835         0.14690
C         46.48056        24.72172         0.66582
C         47.69410        27.38275         0.14895
C         46.48356        26.87941         0.64588
C         47.72128        28.74568        -0.22324
C         46.47488        29.44091        -0.07654
C         47.85795        31.58425         0.14770
C         46.50781        30.87051         0.23031
C         47.62115        33.09394         0.07971
C         46.39882        33.73923         0.64777
C         47.73290        35.93672         0.68298
C         46.40557        35.22965         0.75065
C         47.72969        37.42192         0.66214
C         46.43113        38.18013         0.52993
C         47.67063        40.23510        -0.09684
C         46.45626        39.57468         0.04787
C         47.73329        41.61903        -0.38800
C         46.54217        42.42394        -0.35339
C         47.68130        44.64840         0.19075
C         46.55035        43.86381        -0.05094
C         47.61189        45.88238         1.01913
C         46.27403        46.58543         1.13223
C         47.59103        48.74424         1.74752
C         46.26123        48.04280         1.49692
C         47.57749        50.23976         1.85636
C         46.26349        50.99745         1.72413
C         47.54085        53.13233         1.51458
C         46.32842        52.46867         1.44700
C         47.62488        54.61363         1.50839
C         46.30982        55.38129         1.37265
C         46.31632        56.74864         0.80141
C         50.04126        18.59483        -0.80723
C         48.82712        17.91611        -0.94061
C         50.09239        19.97419        -0.56937
C         48.85411        20.69180        -0.49266
C         50.11561        22.88899        -0.54074
C         48.85198        22.10009        -0.35087
C         50.07180        24.31783        -0.01520
C         48.89341        24.99998         0.12480
C         50.17379        27.24992        -0.25242
C         48.84791        26.49817        -0.26881
C         50.20048        28.70941        -0.46844
C         48.96751        29.41486        -0.50257
C         50.25835        31.54642        -0.86936
C         48.86544        30.89537        -0.86291
C         50.33883        32.91090        -1.09344
C         48.51059        33.93318        -0.51585
C         50.19555        35.91883        -0.32647
C         48.88534        35.24982         0.00051
C         50.23477        37.29057        -0.04444
C         48.90224        38.03073        -0.08631
C         50.19421        40.21200         0.39185
C         48.91235        39.49773         0.24930
C         50.22411        41.60722        -0.07657
C         49.06464        42.14632        -0.56471
C         50.15738        44.66753         0.51591
C         49.02039        44.26790        -0.16234
C         50.10611        45.99150         1.08355
C         48.86437        46.66408         1.18282
C         50.07170        48.77975         1.20098
C         48.86490        48.05175         1.40458
C         49.93546        50.23421         1.09804
C         48.81377        50.93936         1.50162
C         50.12783        53.15123         1.13430
C         48.83682        52.41041         1.56357
C         50.00553        54.58324         0.79130
C         48.87444        55.26118         1.04512
C         52.58005        19.99525        -0.27632
C         51.35447        20.68911        -0.36584
C         52.59220        22.78249        -0.12285
C         51.37018        22.10044        -0.25002
C         52.62525        24.26714        -0.00037
C         51.35113        25.05986         0.02451
C         52.64052        27.15805        -0.56678
C         51.32793        26.52030        -0.29305
C         52.77328        28.67221        -0.69023
C         51.46550        29.39386        -0.62538
C         52.72317        31.52644        -0.94987
C         51.49411        30.81134        -0.75899
C         52.69885        33.00407        -1.08384
C         51.45628        33.76132        -0.84179
C         52.67583        35.91127        -0.52335
C         51.41374        35.16675        -0.59394
C         52.67311        37.31985        -0.16176
C         51.47818        37.99807         0.09427
C         52.74134        40.25010         0.53174
C         51.47688        39.44365         0.48548
C         52.76518        41.69749         0.01315
C         51.44130        42.39546         0.29542
C         52.70466        44.58290         0.78276
C         51.41558        43.86691         0.58979
C         52.53093        45.83627         1.63971
C         51.32446        46.67977         1.27806
C         52.65781        48.74031         1.09331
C         51.33935        48.08344         1.18686
C         52.77585        49.88996         0.36064
C         50.95320        50.98191         0.41880
C         52.43436        52.85563        -0.04980
C         51.19094        52.33403         0.49471
C         53.78765        20.67905        -0.19671
C         55.12141        22.80194        -0.31111
C         53.81484        22.08217        -0.14654
C         55.13266        24.24966        -0.74692
C         53.80302        24.92875        -0.61659
C         55.46615        27.27724        -1.21076
C         53.62054        26.17880        -1.09837
C         55.31504        28.73463        -1.30424
C         53.99561        29.42425        -1.20001
C         55.21867        31.65564        -1.29340
C         53.96424        30.83077        -1.17965
C         55.23226        33.06710        -0.91819
C         53.98900        33.82235        -1.00801
C         55.18803        35.99673        -0.74651
C         53.90674        35.25351        -0.68021
C         55.24156        37.46820        -0.46381
C         53.96681        38.02720         0.06191
C         55.26168        40.26677         0.23873
C         54.01969        39.49535         0.40279
C         55.20387        41.67369         0.69313
C         53.97132        42.46502         0.50796
C         55.15123        44.52371         1.28087
C         53.92047        43.84022         0.82251
C         55.02198        45.76400         1.84127
C         53.81995        46.61741         1.82128
C         55.27520        48.98807         1.49099
C         53.92150        48.13050         1.62157
C         55.11553        50.31063         0.72571
C         53.87962        50.81128         0.33475
C         53.62205        52.17049        -0.13541
C         57.36721        23.03369         0.70259
C         56.27694        22.28841         0.44702
C         57.58225        24.38570         0.13948
C         56.43719        25.05906        -0.59589
C         57.58970        27.32676        -0.05299
C         56.47169        26.56719        -0.61463
C         57.62817        28.70600        -0.19224
C         56.62300        29.43661        -0.99297
C         57.73993        31.63100        -0.41926
C         56.62237        30.92149        -1.03669
C         57.82038        33.07187        -0.62999
C         56.48656        33.80415        -0.90449
C         57.72397        35.97154        -0.21178
C         56.44460        35.23534        -0.46945
C         57.74326        37.46225        -0.20551
C         56.51241        38.17365        -0.13988
C         57.72319        40.34953         0.18245
C         56.48166        39.58860         0.13219
C         57.76237        41.69851         0.51453
C         56.52224        42.37754         0.96766
C         57.79566        44.64584         0.94722
C         56.50366        43.86636         1.22483
C         57.78919        46.12239         0.75817
C         56.82577        46.92928         1.36808
C         57.53739        48.91841         0.23585
C         56.52909        48.24947         0.96007
C         57.46186        50.35497         0.09820
C         56.31811        51.03097         0.40248
C         59.80825        24.55403         1.26538
C         58.69891        25.20753         0.70333
C         59.87499        27.33790         0.96223
C         58.71427        26.61834         0.57457
C         59.99474        28.81173         0.60659
C         58.62553        29.49901         0.64040
C         59.91224        31.69304         0.71984
C         58.74457        30.97637         0.28746
C         60.05913        33.08161         0.47493
C         58.96006        33.82268        -0.07637
C         60.28359        35.90322        -0.13608
C         58.99310        35.20759        -0.18915
C         60.27022        37.45998        -0.19502
C         58.96329        38.13978        -0.13477
C         60.26964        40.35787        -0.08452
C         58.95788        39.61773        -0.17209
C         60.22039        41.82795         0.11879
C         58.98820        42.48274         0.36509
C         60.07745        44.63353        -0.09290
C         58.95954        43.90624         0.38264
C         59.96526        46.06337        -0.40695
C         58.79159        46.77893        -0.01235
C         59.74043        48.83111        -0.94396
C         58.69246        48.18997        -0.23228
C         60.92723        25.27048         1.67896
C         60.96992        26.65393         1.49977
C         60.97023        29.60111         1.44987
C         60.93968        30.94933         1.43531
C         61.26458        33.82322         0.76252
C         61.40506        35.13474         0.41672
C         61.45499        38.22689         0.25881
C         61.45998        39.57231         0.30452
C         61.38019        42.57934        -0.12524
C         61.29639        43.95367        -0.29710
C         60.97140        46.74650        -1.09118
C         60.84486        48.11758        -1.37383
O         47.17828        38.04519         1.83004
O         40.53176        22.46965         1.38505
O         34.54941        52.94271        -1.95979
O         60.54393        36.65224        -1.38482
O         51.71231        50.22895        -0.48620
O         40.61206        27.71437        -1.88652
O         46.58609        25.80586         1.51581
O         43.77476        44.45338        -1.75575
O         56.10536        46.39755         2.44829
O         35.66411        50.59563         0.92724
O         41.01905        46.40237        -1.88937
O         53.75885        47.55444         2.95376
O         53.34070        33.49347        -2.31287
O         52.13515        24.78701         1.27708
O         54.15985        38.45985         1.44290
O         36.52160        34.58862        -2.28294
O         29.30421        48.33094        -1.39197
O         44.05715        21.16427         1.49642
O         28.86437        25.62363         3.44684
O         56.18214        31.37648        -2.33418
O         28.32616        33.39267        -2.32373
O         36.98788        46.18400         0.71445
O         37.31013        44.25813        -2.32389
O         46.99179        55.24757         2.66405
O         38.45975        31.26798        -2.61023
O         33.89725        30.21350        -2.84608
O         40.87581        38.00360         1.13084
O         55.81743        41.71566         2.05467
O         34.31371        43.38556         0.74099
O         55.28312        23.18165        -1.72635
O         56.32053        29.00319        -2.36509
O         23.91049        48.65196        -0.39374
O         29.46551        42.01839        -1.61134
O         32.09918        42.08635         1.05599
O         32.11623        32.81926         0.78669
O         25.58370        28.68512         0.52447
O         30.44632        32.34776        -2.30369
O         22.93944        44.46671         0.12836
O         31.96313        44.15066        -1.94426
O         45.05566        35.61798        -1.24999
O         42.17978        20.77675        -1.44674
O         49.83277        52.89543         2.53667
O         49.36424        39.89701         1.57691
O         57.44291        33.53500        -1.96639
O         25.70752        46.00362        -1.94630
O         52.09227        39.88248         1.75915
O         27.07755        39.54477         1.22283
O         39.27574        55.20137         2.00799
O         43.31407        24.72379         2.00238
O         56.86235        35.44119         0.91666
O         31.70011        26.63644        -2.14812
O         38.26639        33.05356         0.54242
O         46.27545        34.41720         1.95964
O         45.87703        31.11233         1.54845
O         30.77205        27.37395         1.26201
O         26.86599        46.48672         1.33339
O         51.29563        42.82525         1.67884
O         39.77552        42.02399        -2.37637
O         30.86030        37.63580         1.40550
O         46.80342        48.19173         2.83998
O         57.43220        44.19424         2.29671
O         59.68054        40.05388        -1.39768
O         54.54665        26.62434        -2.03216
O         28.58862        37.90212        -1.58762
O         49.16686        43.37533        -1.22767
O         34.26577        20.21185        -1.66648
O         38.21372        20.50069         1.34635
O         24.99233        29.62256         4.69524
O         23.16712        31.07727         0.83329
O         49.20851        33.50794        -1.63601
O         48.73671        35.29326         1.48970
O         39.14946        52.58790         1.89909
O         24.33550        35.24676        -1.99424
O         35.07758        45.46551        -2.27813
O         32.99151        24.48608        -2.10693
O         57.53147        24.44839        -1.33142
O         28.64129        43.75316         1.59590
O         53.14302        27.94940         0.57789
O         43.73947        56.36388         2.18338
O         55.21248        36.97114        -1.84930
O         32.16139        35.36060         1.07568
O         46.80176        45.73979         2.23212
O         43.77387        48.83276        -0.93032
O         41.40578        16.66461         0.59733
O         27.42723        49.84525         1.28399
O         46.85535        50.70682         3.03497
O         41.08064        26.15602         1.53421
O         38.59470        22.50674        -1.67408
O         25.41382        32.95058        -1.83095
O         37.48570        52.91119        -1.46675
O         43.01729        40.02265        -2.42615
H         42.35642        40.58483        -2.88583
O         24.86728        41.47753         1.86721
H         25.59054        40.97284         2.29956
O         48.57506        26.35384        -1.72448
H         49.35999        25.93010        -2.13547
O         38.80511        17.32418         1.58554
H         39.64953        16.84990         1.76200
O         48.25319        30.99613        -2.16545
H         48.86842        30.63039        -2.83380
O         22.48475        36.98969        -2.59490
H         23.17785        36.33902        -2.86310
O         41.22966        35.56056        -2.11945
H         41.97276        35.20380        -2.65070
O         43.37326        50.88106         2.78918
H         44.11902        51.23903         3.31917
O         43.00686        28.59298        -1.91905
H         42.24021        28.12521        -2.33333
O         44.90935        43.90767         1.71114
H         45.56602        44.32124         2.32577
O         48.48011        37.93032        -1.48702
H         49.24722        38.11360        -2.06946
O         33.77314        34.06648        -2.25887
H         34.66272        34.18336        -2.68297
O         35.12384        49.01551        -2.37855
H         35.03768        48.11418        -2.75788
O         35.57501        32.10594        -2.93441
H         35.19159        31.40629        -3.51469
O         26.51072        32.49165         1.46417
H         26.61824        31.89944         2.24043
O         40.42144        35.50284         1.43061
H         40.67452        36.31754         1.92613
O         52.88287        41.52990        -1.43709
H         52.98950        42.41423        -1.84652
O         60.45203        28.86964        -0.76887
H         61.26197        28.32509        -0.85056
O         58.17738        29.43703         2.02478
H         57.30064        29.86791         2.09433
O         25.80925        30.33720        -1.42240
H         25.15443        29.66227        -1.13390
O         50.19046        23.13014        -2.01078
H         49.28170        23.33126        -2.32308
O         40.31663        44.66040         1.17536
H         40.22689        43.76093         1.55560
O         42.38440        31.68963         1.60346
H         43.17991        32.08769         2.02197
O         39.83629        20.00106        -1.84300
H         40.70148        20.15320        -2.29486
O         52.21880        45.31883         2.96814
H         52.41310        46.03551         3.61204
O         40.97820        31.68463        -2.61944
H         40.20094        31.69352        -3.22730
O         27.02777        24.81162         4.94288
H         28.01063        24.89509         4.84924
O         55.58469        49.39011         2.84016
H         55.36212        48.62844         3.42518
O         48.49612        31.40090         1.43169
H         47.82695        31.60429         2.12416
O         41.24549        29.20837         1.28529
H         41.63838        29.98580         1.75405
H         24.25384        24.45988         4.96482
H         22.68018        25.98171         6.15561
H         23.11257        28.46597         6.07784
H         23.10635        31.23894         5.07247
H         22.07334        32.80135         3.47874
H         21.51620        34.20314         2.29760
H         21.20349        36.34201         1.12649
H         20.47172        37.56215        -0.83369
H         20.56194        39.98365        -0.49473
H         20.98932        41.59531        -1.79647
H         21.23706        43.87784        -2.60130
H         21.66713        45.57236        -3.45877
H         23.48004        49.45154        -3.12682
H         22.09157        47.83379        -4.36960
H         25.08605        23.37341         3.28898
H         24.72041        50.77349        -1.95549
H         26.80410        21.86954         2.39843
H         26.61740        52.02584        -1.12638
H         30.48477        19.30462         1.74507
H         28.63269        20.67908         2.55239
H         30.13124        54.25260        -0.12740
H         28.02483        53.00448        -0.01385
H         31.88052        18.23109         0.88368
H         31.78303        55.20909        -0.17326
H         33.88941        16.93207         0.45422
H         33.87724        56.40538        -0.07528
H         37.56717        14.83399        -1.18956
H         35.47366        15.92745        -0.50777
H         37.66762        58.57675        -0.28393
H         35.55642        57.38769        -0.33402
H         39.01799        14.78839        -2.82164
H         39.32869        59.41696        -0.42750
H         43.32237        14.70244        -3.07155
H         41.09879        13.95551        -3.86596
H         43.60599        59.33497        -0.21539
H         41.50046        60.53768        -0.71778
H         45.02787        14.75497        -1.57392
H         45.24990        58.38617         0.00252
H         47.17125        15.90859        -1.36400
H         47.27817        57.24449         0.61557
H         50.96919        18.01524        -0.90185
H         48.85904        16.83676        -1.14088
H         50.88567        55.11007         0.39535
H         48.86641        56.34739         0.88454
H         52.59901        18.89843        -0.32454
H         52.46627        53.92822        -0.29917
H         54.72973        20.11371        -0.20933
H         54.49518        52.75824        -0.45619
H         58.13263        22.61873         1.37279
H         56.17453        21.30438         0.92867
H         58.33740        50.91494        -0.25398
H         56.27005        52.11555         0.23257
H         59.82614        23.46017         1.35162
H         59.68622        49.90526        -1.16291
H         61.79080        24.74411         2.10744
H         61.88492        27.19349         1.77910
H         61.76317        29.09158         2.01562
H         61.70135        31.51233         1.99405
H         62.12824        33.29574         1.19065
H         62.37868        35.62804         0.54488
H         62.36696        37.67058         0.51856
H         62.34982        40.10861         0.66609
H         62.33786        42.06723        -0.29119
H         62.19693        44.50591        -0.59420
H         61.87902        46.22499        -1.42187
H         61.64422        48.62935        -1.92700
