         638
 CSIRO Nanostructure Databank - Neutral Graphene Oxide Data Set
C         23.07653        69.75331         1.05639
C         22.93617        71.17197         0.75094
C         21.78548        71.95964         1.18930
C         23.00313        74.07505         0.92503
C         21.82066        73.33618         1.17578
C         25.64747        65.54944         0.95596
C         25.56840        66.97121         0.91601
C         24.39149        67.67085         1.09917
C         25.51078        69.87323         0.72386
C         24.28962        69.10172         0.90557
C         25.51640        71.24368         0.71400
C         24.26645        71.97891         0.53332
C         25.46191        74.13327         0.65187
C         24.24282        73.43927         0.73847
C         28.00201        61.27541         0.06997
C         28.01222        62.66003         0.15761
C         26.74459        63.34028         0.61667
C         28.03877        65.51473         0.38020
C         26.81324        64.84854         0.63375
C         28.11822        66.97844         0.74661
C         26.79330        67.71362         0.43798
C         27.98244        69.91103         0.29769
C         26.82773        69.16154         0.92891
C         27.98151        71.26502         0.34453
C         26.80562        72.00240         0.96288
C         27.86080        74.17855         0.23578
C         26.72286        73.47062         0.56504
C         30.42043        56.96262        -0.32979
C         30.37810        58.39432        -0.36189
C         29.18476        59.12082        -0.28607
C         30.35693        61.28136        -0.56070
C         29.17705        60.55097        -0.26229
C         30.38238        62.69383        -0.51497
C         29.19949        63.39625        -0.12805
C         30.43475        65.55519        -0.24839
C         29.21929        64.82920         0.01879
C         30.42536        67.01938        -0.24830
C         29.27673        67.69518         0.08723
C         30.44201        69.92066        -0.07976
C         29.14365        69.14775        -0.32032
C         30.35081        71.35116        -0.64210
C         29.21981        72.04585         0.10499
C         30.32642        74.24411        -0.58467
C         29.18151        73.53715         0.12799
C         32.99880        52.79307        -0.04184
C         32.91649        54.17861         0.06758
C         31.72517        54.88306        -0.21460
C         32.81670        57.10960         0.32485
C         31.62484        56.28586        -0.13039
C         32.84561        58.46391        -0.34361
C         31.62592        59.10060        -0.54728
C         32.84418        61.27619        -1.15002
C         31.56327        60.52314        -0.93365
C         32.83179        62.74748        -0.99020
C         31.60417        63.43337        -0.77625
C         32.76157        65.62383        -1.12603
C         31.58038        64.86179        -0.66611
C         32.84022        67.08251        -0.89402
C         31.65161        67.76400        -0.58979
C         32.87326        69.90495        -0.67160
C         31.67775        69.18000        -0.52206
C         32.86359        71.36364        -0.59707
C         31.66723        72.07586        -0.49732
C         32.83374        74.19174        -0.35721
C         31.64350        73.50551        -0.43761
C         35.36756        48.59978         0.89537
C         35.39888        49.97598         0.73572
C         34.21949        50.68895         0.33483
C         35.42189        52.82194         0.52321
C         34.19453        52.07554         0.28469
C         35.39626        54.20793         0.55088
C         34.08097        54.92911         0.68157
C         35.31077        57.04179         0.08363
C         34.12823        56.37215         0.25598
C         35.29959        58.47128        -0.23920
C         34.08901        59.12823        -0.50603
C         35.22264        61.33187        -0.31916
C         34.17392        60.53401        -1.09652
C         35.29651        62.76519        -0.80745
C         34.07305        63.43421        -1.05369
C         35.32972        65.64528        -1.40148
C         34.04750        64.87390        -1.36973
C         35.32888        67.09343        -1.13659
C         34.08763        67.78407        -0.97180
C         35.35224        69.92345        -0.90450
C         34.10668        69.20658        -0.83441
C         35.31538        71.37542        -0.87566
C         34.11436        72.07403        -0.68763
C         35.27380        74.23711        -0.36295
C         34.09536        73.51609        -0.48482
C         37.85299        44.32079         0.78399
C         37.82782        45.73532         1.05767
C         36.64051        46.42235         0.94510
C         37.81044        48.56539         1.68844
C         36.54294        47.83231         1.32108
C         37.78407        50.09502         1.70165
C         36.62235        50.72479         0.94815
C         37.88737        52.85170         1.01490
C         36.65134        52.09898         0.77821
C         37.84322        54.29680         0.82810
C         36.62008        54.96220         0.59697
C         37.80006        57.05604         0.15283
C         36.59547        56.36243         0.28618
C         37.82308        58.43843        -0.45336
C         36.53411        59.20158        -0.29851
C         37.76346        61.33692        -0.35781
C         36.54508        60.59524        -0.36241
C         37.74436        62.75298        -0.50581
C         36.52895        63.43668        -0.80525
C         37.79281        65.64809        -0.73882
C         36.60955        64.87331        -1.15177
C         37.79973        67.03803        -0.90124
C         36.56846        67.78631        -1.06924
C         37.85574        69.98038        -1.34360
C         36.56956        69.22111        -1.01068
C         37.84683        71.42073        -0.87651
C         36.56389        72.12664        -1.05583
C         37.80969        74.26432        -0.33244
C         36.54640        73.64992        -0.73862
C         40.23453        40.01786         0.36700
C         40.21606        41.41060         0.62346
C         39.02001        42.15670         0.65244
C         40.27123        44.21960         1.36766
C         39.00563        43.56140         0.87660
C         40.29507        45.73410         1.25323
C         39.08021        46.44952         1.33056
C         40.33830        48.55160         1.65366
C         39.10743        47.85436         1.53858
C         40.31495        50.03691         2.05187
C         39.14165        50.69966         1.26902
C         40.32089        52.99512         1.66172
C         39.06967        52.21351         1.32704
C         40.30933        54.37499         1.04443
C         39.06257        55.02834         0.78104
C         40.27215        57.12953         0.33367
C         39.03831        56.40402         0.41206
C         40.26610        58.55583         0.14978
C         39.04466        59.24169        -0.07832
C         40.23843        61.39182        -0.09972
C         39.01547        60.64461        -0.16341
C         40.22727        62.80722        -0.25059
C         38.96077        63.51125        -0.37437
C         40.19730        65.61237         0.12266
C         38.94425        64.91064        -0.33598
C         40.18774        67.08409        -0.05356
C         39.10281        67.74175        -0.77104
C         40.27442        69.99442        -0.36173
C         39.14789        69.23666        -0.97050
C         40.22119        71.36611        -0.25577
C         38.99515        72.09775        -0.52820
C         40.23345        74.23821        -0.09959
C         38.98980        73.55011        -0.30195
C         42.66114        35.83770        -0.62285
C         42.66355        37.21615        -0.40194
C         41.44827        37.93271        -0.13566
C         42.67965        40.11671        -0.18931
C         41.42400        39.30919         0.06812
C         42.75632        41.31239         0.75296
C         41.48398        42.13281         0.72320
C         42.75182        44.23868         0.70214
C         41.50118        43.48465         0.88617
C         42.75137        45.71561         0.89538
C         41.50661        46.44437         1.26668
C         42.88398        48.56235         1.58152
C         41.54007        47.84861         1.45979
C         42.82753        50.03193         1.24794
C         41.69744        50.79605         1.90157
C         42.75779        52.87507         1.06064
C         41.59416        52.21745         1.37070
C         42.79954        54.38214         1.22481
C         41.49984        55.05057         0.84791
C         42.73196        57.15819         0.43572
C         41.49300        56.44190         0.51346
C         42.71207        58.56185         0.34312
C         41.49213        59.27765         0.21742
C         42.68423        61.45023        -0.04317
C         41.48184        60.71071         0.04745
C         42.67586        62.84085        -0.30854
C         41.43458        63.51705        -0.39126
C         42.68995        65.70001        -0.43889
C         41.39072        64.99664        -0.68632
C         42.71863        67.10423        -0.17416
C         41.44325        67.79606         0.33902
C         42.65620        69.94362         0.24518
C         41.46623        69.27490         0.05176
C         42.69623        71.38232         0.15907
C         41.38670        72.09258         0.37602
C         42.68203        74.22964         0.04538
C         41.44222        73.56387         0.05153
C         45.06593        33.02183        -1.26017
C         43.86656        33.71495        -1.06759
C         45.12225        35.79788        -0.78299
C         43.87081        35.10965        -0.82848
C         45.15195        37.20195        -0.54077
C         43.92828        37.92409        -0.37418
C         45.19535        39.99004        -0.03480
C         43.96182        39.31276        -0.14787
C         45.23048        41.41111         0.24584
C         44.02250        42.10303         0.52615
C         45.24297        44.20654         0.50798
C         44.03298        43.49229         0.64834
C         45.20444        45.67460         0.42686
C         44.08495        46.38316         1.16185
C         45.28283        48.58022         0.75328
C         43.95585        47.85465         0.73529
C         45.26081        49.98343         0.77431
C         43.99699        50.70650         0.93863
C         45.20109        52.84726         0.57682
C         44.01306        52.16204         0.86136
C         45.20585        54.29946         0.40806
C         44.00893        55.04759         0.62112
C         45.20241        57.14834         0.11707
C         43.97801        56.42924         0.40622
C         45.21742        58.53290         0.10865
C         43.99231        59.28413         0.37888
C         45.17648        61.46057        -0.38595
C         43.98170        60.79003         0.14375
C         45.15194        62.82242        -0.64013
C         43.91410        63.56465        -0.49507
C         45.14836        65.73862        -0.88758
C         43.89598        64.97118        -0.53637
C         45.18340        67.13479        -0.29760
C         43.91823        67.79580        -0.05428
C         45.16383        69.96019         0.24995
C         43.91731        69.17938         0.57732
C         45.14048        71.31237         0.04977
C         43.89280        72.06654         0.06425
C         45.12978        74.23352        -0.02407
C         43.92278        73.53198         0.02997
C         46.29042        33.68235        -1.22212
C         47.57838        35.78073        -0.94505
C         46.34805        35.08309        -0.98317
C         47.62903        37.17396        -0.70891
C         46.39524        37.89053        -0.49832
C         47.66845        39.98776        -0.22492
C         46.42231        39.28772        -0.24406
C         47.69797        41.39221         0.00400
C         46.46118        42.11151         0.22279
C         47.71276        44.27104         0.41431
C         46.47042        43.53108         0.36533
C         47.75672        45.66120         0.40682
C         46.49749        46.42565         0.30653
C         47.73109        48.55583         0.55159
C         46.49820        47.87720         0.59093
C         47.72545        49.98505         0.54827
C         46.48821        50.69474         0.62989
C         47.65190        52.78162         0.14753
C         46.45733        52.11916         0.46258
C         47.59057        54.17520        -0.42430
C         46.37436        54.97150        -0.00812
C         47.60909        57.10226        -0.43208
C         46.41787        56.39010        -0.11030
C         47.66549        58.50520        -0.43973
C         46.49896        59.32814         0.05038
C         47.65491        61.37278        -0.87840
C         46.35139        60.60558        -0.80094
C         47.63799        62.81545        -0.94798
C         46.40707        63.53717        -0.84844
C         47.64423        65.61662        -0.53654
C         46.42626        64.94698        -0.71277
C         47.67195        66.98781         0.09396
C         46.37643        67.75474        -0.03950
C         47.60706        69.88371        -0.41130
C         46.45442        69.19941         0.39013
C         47.71062        71.38485         0.03161
C         46.38825        72.04015        -0.29436
C         47.70510        74.21780        -0.12756
C         46.39740        73.57505        -0.31566
C         48.85453        37.87930        -0.67015
C         50.12474        39.98793        -0.39579
C         48.90021        39.27586        -0.43315
C         50.16400        41.37355        -0.12361
C         48.93080        42.06909         0.07630
C         50.27086        44.18995         0.65064
C         48.95531        43.47742         0.51590
C         50.29887        45.70861         0.86593
C         48.98445        46.41434         0.53277
C         50.27301        48.55896         0.66624
C         48.96980        47.79999         0.50525
C         50.19582        49.99322         0.18935
C         48.95069        50.69727         0.32076
C         50.12394        52.80804        -0.20274
C         48.88931        52.08837         0.07291
C         50.11840        54.18649        -0.29429
C         48.85607        54.97980        -0.08771
C         50.11082        57.12494        -0.63716
C         48.84636        56.33386        -0.82704
C         50.11296        58.49192        -0.78803
C         48.85367        59.20834        -0.74145
C         50.11272        61.31738        -1.18233
C         48.83714        60.64089        -0.87985
C         50.10751        62.81826        -1.31000
C         48.85752        63.54373        -1.01164
C         50.11512        65.66625        -0.60105
C         48.87517        64.93271        -0.71595
C         50.15462        67.04398        -0.35415
C         48.92662        67.78159        -0.22465
C         50.16512        69.90871        -0.33104
C         48.93023        69.16314        -0.24926
C         50.17178        71.33159        -0.35605
C         48.88490        72.07011        -0.68676
C         50.15618        74.19072        -0.12510
C         48.90278        73.54318        -0.29651
C         51.39377        42.10471        -0.12972
C         52.62971        44.22393        -0.14829
C         51.46892        43.48640         0.12216
C         52.65564        45.65469        -0.11731
C         51.48611        46.39356         0.23436
C         52.61742        48.47010        -0.31546
C         51.46873        47.79289         0.12402
C         52.55272        49.91056        -0.72804
C         51.35097        50.66074        -0.20891
C         52.60737        52.76730        -0.51936
C         51.36945        52.08261        -0.33780
C         52.64980        54.18796        -0.50580
C         51.38587        54.91311        -0.29401
C         52.62907        57.04583        -0.95902
C         51.37728        56.40080        -0.42310
C         52.61333        58.52648        -0.71615
C         51.38450        59.22469        -0.79622
C         52.61806        61.34529        -0.82544
C         51.38867        60.62248        -0.90392
C         52.63830        62.76074        -0.87169
C         51.41705        63.52569        -1.17428
C         52.62786        65.58676        -0.21476
C         51.39825        64.98630        -0.85646
C         52.64643        67.08364        -0.39755
C         51.41790        67.76386        -0.35586
C         52.62867        69.91154        -0.22748
C         51.40023        69.19958        -0.30594
C         52.61895        71.33184        -0.13335
C         51.37717        72.03810        -0.21971
C         52.61161        74.16260         0.06201
C         51.37550        73.48797        -0.11826
C         53.83401        46.35839        -0.44900
C         55.05633        48.49982        -0.71692
C         53.84033        47.76667        -0.52448
C         55.10678        49.90412        -0.65568
C         53.85933        50.65643        -0.58487
C         55.14460        52.78647        -0.85278
C         53.85485        52.02967        -0.58629
C         55.12867        54.22186        -0.38231
C         53.85818        54.91772        -0.47164
C         55.04530        57.06232        -0.25934
C         53.87250        56.34372        -0.47814
C         55.06920        58.47733        -0.43719
C         53.83833        59.21281        -0.61705
C         55.09838        61.32992        -0.64211
C         53.85016        60.63102        -0.66643
C         55.11278        62.74077        -0.71302
C         53.86938        63.47627        -0.74983
C         55.12076        65.63735        -0.97571
C         53.87862        64.87459        -0.64647
C         55.11949        67.06583        -0.48162
C         53.89221        67.77277        -0.40421
C         55.08010        69.92553        -0.13532
C         53.87985        69.21484        -0.25888
C         55.07690        71.32918         0.07145
C         53.84468        72.03744         0.03133
C         55.07408        74.14842         0.35531
C         53.82998        73.47179         0.13972
C         56.33682        50.60093        -0.57738
C         57.52211        52.69250        -0.05846
C         56.38273        52.01995        -0.44436
C         57.49778        54.12458         0.38769
C         56.26304        54.88372        -0.01730
C         57.57451        57.05177        -0.10542
C         56.26644        56.36922         0.29954
C         57.54523        58.40181        -0.46942
C         56.30278        59.17054        -0.44698
C         57.56261        61.31313        -0.53127
C         56.32507        60.58801        -0.55872
C         57.56901        62.70780        -0.55861
C         56.35206        63.45720        -0.64604
C         57.59136        65.57637        -0.37456
C         56.37433        64.87006        -0.65987
C         57.56881        67.02481        -0.19744
C         56.35918        67.72909        -0.30202
C         57.50502        69.82519         0.48820
C         56.40270        69.24030        -0.38289
C         57.53713        71.33709         0.41873
C         56.31562        72.03820         0.31370
C         57.51610        74.23506         0.84202
C         56.26992        73.46543         0.46397
C         58.76337        54.88745         0.13888
C         60.09169        56.91227         0.27445
C         58.81230        56.27591         0.10319
C         60.23585        58.22879         0.82283
C         58.71857        59.17761        -0.85593
C         60.01726        61.24852        -0.15944
C         58.82633        60.57262        -0.52536
C         60.05721        62.67270        -0.20306
C         58.86929        63.44098        -0.74672
C         60.01335        65.53370         0.26619
C         58.78319        64.87133        -0.27215
C         60.04711        67.02598         0.06195
C         58.82554        67.73369         0.00570
C         60.02751        69.86226         0.31683
C         58.82262        69.14684         0.19382
C         60.00713        71.29250         0.55127
C         58.77368        72.01405         0.58930
C         59.99696        74.10636         0.96046
C         58.80370        73.44395         0.76586
C         61.24568        59.09636         0.43425
C         62.48039        61.28802         0.38854
C         61.16808        60.58730         0.64112
C         62.51570        62.65298         0.18135
C         61.25776        63.35257        -0.02338
C         62.55997        65.56577        -0.11385
C         61.26355        64.81753        -0.19196
C         62.52290        66.99843         0.20113
C         61.30082        67.71291         0.15574
C         62.48426        69.88403         0.38696
C         61.27260        69.16210         0.23394
C         62.45384        71.28598         0.63267
C         61.23527        71.99004         0.71459
C         62.45204        74.09158         1.24392
C         61.25546        73.42025         0.96265
C         63.74689        63.40683         0.20017
C         65.00838        65.50973         0.36780
C         63.80268        64.79685         0.13130
C         65.09796        66.90791         0.52114
C         63.84314        67.72347         0.14617
C         64.72335        69.81084         1.24318
C         63.69101        69.13832         0.64637
C         64.97954        71.21992         1.02760
C         63.71426        72.03312         0.74536
C         64.91208        73.97794         1.67138
C         63.71634        73.42674         1.22357
C         66.39338        67.46230         0.69024
C         67.60621        69.73570         1.08283
C         66.63943        68.76777         1.23721
C         67.44675        71.12310         1.55927
C         66.21342        71.84315         1.53663
C         67.34518        73.90761         2.16481
C         66.15507        73.24303         1.78088
C         68.60877        71.85077         1.89234
C         68.54755        73.20940         2.22080
O         45.62558        46.16166        -0.88223
O         29.61639        72.77698         1.32850
O         65.57565        69.13877         2.10433
O         36.96012        48.04633         2.76935
O         51.48993        55.84453         0.92587
O         32.04974        60.83093        -2.30793
O         46.31560        72.72035        -1.54420
O         51.61367        64.55388        -2.23295
O         36.55749        73.11876        -2.11693
O         64.64585        71.69103        -0.32762
O         61.88025        65.27775        -1.42141
O         42.65061        45.17490        -0.46162
O         50.06864        61.97504        -2.50997
O         33.16839        65.22360        -2.48741
O         47.30856        69.83758        -1.76608
O         36.17976        65.21890        -2.51345
O         39.58290        68.37873        -2.07521
O         44.14740        60.23365         1.52064
O         49.67256        43.55388         1.83223
O         23.45168        71.53718        -0.57757
O         30.54891        70.04665         1.36273
H         31.25329        70.69939         1.56243
O         42.93429        54.57576         2.67426
H         42.14716        54.15148         3.09398
O         37.95121        58.20041        -1.90816
H         37.74698        59.04535        -2.36396
O         59.08972        63.50029        -2.20585
H         58.38247        64.06616        -2.58454
O         57.41406        54.05908         1.89601
H         56.74963        53.36896         2.11417
O         57.62089        75.44022         0.06965
H         57.74100        75.19059        -0.86942
O         25.63066        62.89876        -0.18170
H         25.85013        63.04969        -1.12371
O         41.02355        65.19614        -2.07456
H         41.82439        65.07610        -2.62660
O         48.78910        55.27114         1.32902
H         49.67915        55.60753         1.59905
O         37.82912        70.08502        -2.79419
H         38.35398        69.32366        -3.14105
O         28.89108        69.08883        -1.75958
H         28.01421        68.63323        -1.86032
O         42.84163        40.75989         2.09974
H         42.95586        41.50299         2.72849
O         30.04454        71.41136        -2.05648
H         29.51503        70.60687        -2.29644
O         34.65213        60.39676        -2.45256
H         33.85586        60.30582        -3.02492
O         56.21784        56.51163         1.76199
H         56.67678        55.71350         2.13429
O         26.66226        67.78376        -1.01785
H         26.39300        66.89634        -1.33708
O         59.57314        58.61355        -1.70804
H         60.31708        59.21792        -1.91169
O         57.17177        69.48475         1.87139
H         57.85382        69.88417         2.45113
O         40.01770        50.08734         3.46816
H         39.03383        50.04778         3.60670
O         27.06051        71.97451         2.41127
H         27.96793        72.35169         2.52217
O         40.30393        53.21399         3.12304
H         40.13417        52.34013         3.54317
O         60.81186        60.89255         2.02126
H         60.07816        60.28542         2.27123
O         50.49705        48.66965         2.10866
H         50.52628        47.74402         2.46346
O         46.03436        60.15851        -2.15926
H         46.11161        60.93210        -2.75722
O         28.38490        66.95481         2.17385
H         28.16066        67.84675         2.54155
O         48.73876        71.98983        -2.11063
H         48.18366        71.17231        -2.30401
O         27.05215        69.18699         2.36938
H         27.08501        70.14620         2.63388
O         41.56840        67.68528         1.81749
H         41.38333        66.73273         2.03091
O         47.46973        53.91631        -1.84864
H         47.71699        54.73625        -2.34132
O         64.07211        67.91050        -1.30616
H         63.28963        68.37432        -1.67514
O         42.56903        40.65631        -1.53500
H         42.48602        39.90507        -2.15836
O         37.49849        50.49286         3.08027
H         36.88866        49.78945         3.42190
O         52.47055        65.34590         1.22650
H         53.19072        65.82126         1.69199
O         55.21752        52.88856        -2.31896
H         55.31478        51.97611        -2.66649
O         44.43974        46.22404         2.55010
H         44.00524        46.94230         3.07501
O         43.46576        47.88484        -0.62007
H         44.06371        47.31833        -1.16392
O         52.55905        56.86290        -2.41338
H         53.35123        57.28380        -2.80894
O         40.28635        43.99629         2.83061
H         40.02689        43.06257         2.98541
O         33.80015        54.94617         2.13957
H         33.71320        54.01188         2.42803
O         60.00495        65.32548         1.72955
H         59.18114        65.72523         2.08141
O         43.96814        68.96184         2.03551
H         43.12645        68.47510         2.25863
O         42.24783        50.98172         3.26452
H         41.49415        50.87911         3.89767
O         59.27983        58.66202         1.71156
H         58.64896        57.93490         1.89809
O         40.45794        65.24944         1.52169
H         39.61276        65.31824         2.01361
O         47.78477        66.69090         1.53591
H         47.65692        67.55303         2.00344
O         55.10732        65.77423        -2.46990
H         54.17196        65.70561        -2.76402
O         30.00347        74.30772        -1.98374
H         30.03741        73.38606        -2.33751
O         50.48487        45.91111         2.30767
H         50.03703        45.14654         2.74731
O         56.76629        69.55021        -1.76079
H         56.13166        69.09218        -2.35135
O         46.82364        59.71710         1.41080
H         45.97858        60.01173         1.83477
O         52.32935        49.85010        -2.19370
H         52.24533        50.77495        -2.51187
O         45.03415        65.94561        -2.34312
H         45.69139        66.62810        -2.60126
O         48.80208        56.10315        -2.28020
H         48.80018        56.98073        -2.71916
O         43.26918        48.51390         2.99067
H         42.98825        49.37827         3.39957
O         41.13980        72.02238         1.82975
H         41.92374        72.40576         2.27739
O         34.76556        61.37413         1.06374
H         35.50140        61.70442         1.61968
O         46.75600        69.19943         1.83435
H         45.88200        69.03926         2.27809
O         39.36582        50.34512        -0.11815
H         38.72121        50.83451        -0.67166
O         47.98255        71.49892         1.43342
H         47.50391        70.77598         1.91400
O         32.59512        57.39144         1.74870
H         32.85232        56.57351         2.23987
H         22.97242        75.17130         1.00258
H         25.44539        75.23339         0.60671
H         27.77664        75.24159        -0.03727
H         30.42777        75.29602        -0.21566
H         32.83452        75.28914        -0.27816
H         35.24860        75.27553        -0.00024
H         37.80929        75.32865        -0.05174
H         40.23022        75.33800        -0.15498
H         42.69463        75.32285        -0.08552
H         45.11973        75.32581         0.11377
H         47.71684        75.26665         0.21008
H         50.17373        75.28301         0.01876
H         52.61022        75.25966         0.15206
H         55.07179        75.24311         0.46606
H         57.38925        74.56912         1.91186
H         59.98519        75.19499         1.11899
H         62.41581        75.15962         1.50722
H         64.91898        75.02967         1.99748
H         67.31953        74.98500         2.38172
H         22.19858        69.19868         1.42056
H         20.89406        71.43225         1.55922
H         20.91370        73.89313         1.45298
H         24.73690        64.97546         1.18489
H         23.47475        67.12206         1.36574
H         27.07511        60.72809         0.29469
H         26.52286        62.99562         1.66479
H         29.48886        56.39655        -0.48372
H         28.23456        58.58681        -0.13830
H         32.12084        52.22408        -0.38367
H         30.83722        54.30776        -0.52271
H         34.44438        48.04863         0.66316
H         33.29990        50.11794         0.14004
H         36.90444        43.83502         0.50667
H         35.73173        45.90356         0.60542
H         39.27946        39.46867         0.36924
H         38.06905        41.65112         0.42298
H         41.70498        35.29318        -0.63531
H         40.51484        37.35561        -0.04203
H         45.03970        31.93860        -1.44525
H         42.90877        33.17622        -1.10174
H         47.22492        33.12447        -1.37765
H         48.51610        35.22665        -1.10217
H         49.79509        37.33050        -0.82760
H         51.06649        39.44496        -0.56319
H         52.31029        41.57770        -0.43557
H         53.52940        43.69235        -0.49293
H         54.75941        45.79797        -0.64662
H         55.99772        47.93667        -0.80494
H         57.26927        50.02475        -0.47489
H         58.43670        52.11797         0.16019
H         59.70960        54.33849         0.26630
H         60.99485        56.36543        -0.03005
H         61.97550        58.71909        -0.29745
H         63.41459        60.73184         0.55510
H         64.67927        62.85129         0.38477
H         65.92080        64.91489         0.53628
H         67.25288        66.79963         0.49383
H         68.53132        69.50344         0.53394
H         69.58144        71.33847         1.89011
H         69.47072        73.73865         2.49636
