         430
 CSIRO Nanostructure Databank - Neutral Graphene Oxide Data Set
C         28.15348        27.44789        -1.31344
C         28.07138        28.70106        -0.58193
C         26.86064        29.11205        -0.02960
C         27.97273        31.00988         0.98320
C         26.83120        30.23522         0.81295
C         28.05263        33.26692         1.77033
C         26.98448        34.02180         2.29088
C         28.03309        36.03543         1.49269
C         26.95079        35.39745         2.10087
C         27.99278        37.54103         1.40680
C         26.72457        38.11557         0.82523
C         27.89579        40.20175         0.24627
C         26.69535        39.39386         0.38047
C         27.86128        41.53444        -0.17241
C         26.66033        42.29169        -0.31656
C         27.89648        44.36926        -0.76671
C         26.67936        43.64262        -0.60910
C         27.89994        45.81439        -0.88182
C         30.62637        27.67692        -1.60111
C         29.32127        26.94606        -1.75752
C         30.51056        28.94326        -0.77733
C         29.26071        29.47455        -0.37735
C         30.36094        31.58255         0.37943
C         29.20882        30.73678         0.31728
C         30.25732        33.11815         0.35797
C         29.16235        33.84915         1.14263
C         30.39729        35.98307         0.79755
C         29.17723        35.28431         1.09622
C         30.41982        37.41960         0.72930
C         29.20251        38.14606         0.75655
C         30.40079        40.19490         0.22864
C         29.17753        39.51258         0.41632
C         30.34597        41.69590         0.18580
C         29.15637        42.18083        -0.62989
C         30.35087        44.38973        -0.79357
C         29.12996        43.69414        -0.69592
C         30.36144        45.81204        -1.31938
C         29.04554        46.50953        -1.06982
C         32.90477        24.67288        -0.89493
C         31.76728        25.42133        -1.21781
C         32.93896        27.46454        -0.63608
C         31.76907        26.81063        -1.10295
C         32.94184        28.90223        -0.46644
C         31.68222        29.61421        -0.41662
C         32.83428        31.70952         0.16642
C         31.62064        30.98775         0.05252
C         32.82487        33.12373         0.40593
C         31.59653        33.82731         0.51390
C         32.86101        35.94371         0.60568
C         31.61926        35.24398         0.62606
C         32.91912        37.42166         0.90124
C         31.63940        38.12664         0.56595
C         32.89123        40.24160         0.14507
C         31.63562        39.51958         0.34150
C         32.85503        41.65658        -0.12955
C         31.63602        42.34571        -0.23439
C         32.82305        44.46202        -0.63851
C         31.58794        43.72218        -0.58201
C         32.79174        45.88553        -0.64855
C         31.59580        46.59204        -0.89075
C         32.82172        48.71901        -0.71680
C         31.62143        47.99230        -0.91225
C         35.38917        23.16334        -0.37350
C         35.29991        24.53013        -0.19743
C         34.09455        25.29418        -0.48265
C         35.34069        27.41669        -0.04428
C         34.11164        26.71809        -0.35646
C         35.35491        28.84474        -0.04440
C         34.13772        29.56785        -0.20779
C         35.36701        31.67702         0.32567
C         34.13265        31.07063        -0.27393
C         35.34028        33.09968         0.81214
C         34.06203        33.83601         0.48992
C         35.36574        35.97991         0.80336
C         34.06798        35.23731         0.55027
C         35.34658        37.43030         0.35621
C         34.15693        38.12188         0.38170
C         35.34991        40.25266        -0.13055
C         34.11136        39.54613         0.11945
C         35.33241        41.66015        -0.34407
C         34.08912        42.36777        -0.36842
C         35.29954        44.51164        -0.95249
C         34.05190        43.76392        -0.57043
C         35.30470        45.94600        -0.50539
C         34.01019        46.61161        -0.13133
C         35.26502        48.80258        -0.18868
C         34.01599        48.09256        -0.41083
C         35.29267        50.18952         0.06632
C         37.76618        23.09617         0.23745
C         36.57715        22.44083        -0.07546
C         37.76830        24.51452         0.32393
C         36.45384        25.23185         0.47822
C         37.76713        27.38813         0.37133
C         36.52981        26.70703         0.20480
C         37.78483        28.82566         0.36432
C         36.58434        29.53639         0.18237
C         37.81497        31.69115         0.48410
C         36.55274        30.98279         0.33165
C         37.83205        33.09681         0.37492
C         36.58594        33.84567         0.39960
C         37.77642        35.94506        -0.05840
C         36.56085        35.20871         0.30333
C         37.78159        37.41479        -0.06848
C         36.59240        38.11720         0.05185
C         37.82502        40.25839        -0.30967
C         36.58208        39.55160        -0.14078
C         37.82362        41.68712        -0.42528
C         36.57401        42.38517        -0.47231
C         37.78565        44.52032        -0.61833
C         36.56851        43.78428        -0.60828
C         37.73995        45.93869        -0.62788
C         36.49880        46.64100        -0.45546
C         37.69873        48.76477         0.11027
C         36.49482        48.08664        -0.17964
C         37.69492        50.13671         0.46199
C         36.47663        50.83397         0.41169
C         40.21265        20.29612        -0.15574
C         39.07983        20.91458         0.22496
C         40.27083        23.14364         0.14525
C         39.05037        22.36803         0.61329
C         40.23502        24.51348         0.20112
C         38.98285        25.23581         0.40586
C         40.25738        27.36236         0.86859
C         38.98286        26.65079         0.49097
C         40.25772        28.85047         0.62229
C         39.04141        29.53910         0.52828
C         40.27278        31.68424         0.61510
C         39.03775        30.97421         0.53715
C         40.28048        33.10333         0.58280
C         39.07486        33.78609         0.40899
C         40.28753        36.04068         0.51253
C         39.09123        35.22184         0.08158
C         40.31606        37.41851        -0.07367
C         39.04533        38.07943        -0.55637
C         40.29494        40.25145        -0.41925
C         39.05436        39.56624        -0.35153
C         40.30910        41.68134        -0.54335
C         39.04911        42.40139        -0.56196
C         40.27626        44.56379        -0.69466
C         39.03543        43.81728        -0.63282
C         40.26834        45.93390        -0.63232
C         38.99397        46.73435        -0.78573
C         40.27022        48.71026         0.22431
C         38.96875        47.98516         0.07542
C         40.19103        50.19028         0.33822
C         38.96606        50.77156         1.03522
C         40.19242        52.96587         1.00977
C         39.02170        52.28061         1.03492
C         42.66930        20.31953        -0.54685
C         41.47003        21.01135        -0.29931
C         42.70702        23.11513        -0.41906
C         41.48967        22.42417        -0.20474
C         42.69851        24.59147        -0.46311
C         41.38143        25.34988        -0.31048
C         42.70561        27.36056         0.45802
C         41.51779        26.68709         0.38980
C         42.75381        28.80943         0.56793
C         41.50212        29.54990         0.60703
C         42.73820        31.69705         0.39723
C         41.51028        30.96458         0.59229
C         42.78942        33.08296         0.40864
C         41.57101        33.85193         0.84910
C         42.76974        35.96377         0.17204
C         41.57463        35.28276         0.37065
C         42.77707        37.39557        -0.02168
C         41.52275        38.09927        -0.16130
C         42.76487        40.22906        -0.40882
C         41.53070        39.53264        -0.38316
C         42.76782        41.65657        -0.55351
C         41.53312        42.35570        -0.66929
C         42.82126        44.50390        -0.69140
C         41.54133        43.80735        -1.06770
C         42.83827        45.96684        -0.74697
C         41.52930        46.71831        -0.69581
C         42.73684        48.81330        -0.03958
C         41.54400        48.11583        -0.22442
C         42.75384        50.20569         0.25848
C         41.48891        50.95819         0.30420
C         42.69324        52.93776         1.10485
C         41.47790        52.32784         0.83202
C         43.88015        20.99835        -0.60091
C         45.21956        23.11085        -0.38104
C         43.93301        22.40797        -0.51012
C         45.25005        24.49915        -0.11922
C         44.00260        25.28671        -0.22327
C         45.25790        27.38169         0.27140
C         44.00172        26.59461         0.52815
C         45.23582        28.78290         0.25855
C         43.96386        29.47268         0.35394
C         45.25036        31.65953        -0.08492
C         43.93584        30.91444         0.05710
C         45.24600        33.11599         0.08652
C         44.02051        33.80872         0.20523
C         45.24519        35.94866         0.03093
C         44.02353        35.23993         0.15885
C         45.24338        37.37867        -0.09189
C         44.00319        38.09159        -0.13689
C         45.23932        40.22760        -0.34586
C         44.00638        39.52125        -0.30256
C         45.24147        41.66055        -0.44382
C         44.01346        42.35924        -0.53963
C         45.27582        44.51491        -0.51031
C         44.01030        43.80634        -0.55961
C         45.26661        45.96527        -0.37340
C         44.08000        46.65850        -0.36456
C         45.27467        48.81701         0.12784
C         44.00163        48.03041         0.24649
C         45.24729        50.20638         0.33164
C         43.96559        50.90284         0.51558
C         43.91149        52.25143         0.91622
C         47.64233        23.08270        -0.13354
C         46.44798        22.41546        -0.38016
C         47.67113        24.46576         0.10621
C         46.46466        25.19191         0.11799
C         47.69201        27.36024         0.34443
C         46.47653        26.65701         0.24573
C         47.72176        28.78456         0.29200
C         46.48381        29.50425         0.18849
C         47.71974        31.64119         0.09541
C         46.50652        30.91928         0.10529
C         47.72048        33.07791         0.01292
C         46.48595        33.80825         0.05835
C         47.72220        35.93489        -0.10618
C         46.48573        35.23328         0.01823
C         47.71005        37.37539        -0.18445
C         46.48085        38.08686        -0.18396
C         47.71061        40.24483        -0.27263
C         46.48067        39.52261        -0.27117
C         47.71744        41.67285        -0.36709
C         46.48785        42.37658        -0.45557
C         47.75665        44.56202        -0.77831
C         46.47411        43.81168        -0.51781
C         47.73377        45.99936        -0.30224
C         46.52825        46.68119        -0.19071
C         47.73025        48.83477         0.04350
C         46.50431        48.11464         0.00145
C         47.67950        50.24450         0.19020
C         46.47832        50.91054         0.32992
C         50.05031        24.81628        -0.64181
C         49.00810        25.10238         0.42895
C         50.24185        27.36294         0.65839
C         48.93681        26.61843         0.64408
C         50.22831        28.79883         0.28567
C         48.96715        29.50304         0.24055
C         50.17154        31.64722        -0.12352
C         48.95818        30.92092         0.09422
C         50.19400        33.04971        -0.20208
C         48.94798        33.78967        -0.10569
C         50.20082        35.94020        -0.52258
C         48.93467        35.20537        -0.16694
C         50.17579        37.39678        -0.13239
C         48.94624        38.10215        -0.18455
C         50.18958        40.23488        -0.13211
C         48.94710        39.52911        -0.17075
C         50.20038        41.67818        -0.19467
C         48.97908        42.39281        -0.32155
C         50.20968        44.52811        -0.24832
C         49.00083        43.81104        -0.38170
C         50.21535        45.97732        -0.21300
C         48.97939        46.70141        -0.18754
C         50.22615        48.79302         0.02529
C         48.97991        48.11543        -0.03854
C         51.20464        25.49332        -0.66056
C         52.73711        27.34366         0.12064
C         51.50771        26.51885         0.42825
C         52.69560        28.74009        -0.02435
C         51.42264        29.44018        -0.01970
C         52.72712        31.63396        -0.37718
C         51.39891        30.87233        -0.35935
C         52.68745        33.08115        -0.14774
C         51.45598        33.76883        -0.22098
C         52.65297        35.88579         0.06903
C         51.46318        35.19839        -0.15369
C         52.61138        37.34043         0.35565
C         51.37154        38.09904         0.05332
C         52.73052        40.19078        -0.18997
C         51.39458        39.51118         0.00592
C         52.68060        41.69334        -0.05176
C         51.44713        42.38968        -0.12933
C         52.68095        44.53792        -0.07645
C         51.44288        43.82124        -0.12864
C         52.69519        45.96330        -0.10527
C         51.44123        46.68210        -0.12496
C         51.41330        48.10099        -0.02709
C         55.16750        27.33992         0.03845
C         53.96861        26.65501         0.11214
C         55.17179        28.75533        -0.00647
C         53.93602        29.46680        -0.08614
C         55.17113        31.59640         0.07276
C         53.96790        30.88999        -0.10790
C         55.15149        33.04973         0.16918
C         53.91183        33.76941         0.08721
C         55.12497        35.90281         0.40537
C         53.89562        35.19201         0.22071
C         55.15296        37.35409         0.43468
C         53.88054        38.08054         0.65912
C         55.17189        40.25515         0.26203
C         53.86263        39.61674         0.69065
C         55.16388        41.68713         0.11974
C         53.90932        42.39049         0.03655
C         55.14708        44.53068        -0.00419
C         53.91186        43.82169        -0.00806
C         55.13524        45.94861        -0.05332
C         53.94234        46.64077        -0.09573
C         56.39210        29.48567         0.07365
C         56.38971        30.85726         0.15284
C         56.33129        33.77958         0.39053
C         56.31946        35.16629         0.50019
C         56.30147        38.07301         0.17198
C         56.30770        39.49191         0.08747
C         56.37248        42.42872         0.09402
C         56.37131        43.80720         0.03585
O         38.53686        35.43208        -1.24899
O         43.45950        25.21634        -1.57615
O         27.92404        31.90923         2.03784
O         53.07369        37.55036         1.76620
O         39.67050        47.92942         1.35593
O         42.23179        46.53504        -1.99920
O         49.54004        27.05954         1.91258
O         44.49020        31.21828        -1.27497
O         52.06691        31.21001        -1.62293
O         40.59196        50.82190        -0.89743
O         51.84186        25.79303         1.62688
H         51.06572        25.21474         1.84541
O         40.31865        27.22842         2.34837
H         39.51433        27.65836         2.71145
O         29.87376        33.36500        -1.05418
H         30.63611        33.10679        -1.61536
O         50.21666        35.97713        -2.00422
H         50.17845        35.04809        -2.31861
O         28.03310        38.01175         2.80739
H         28.00466        38.99237         2.78263
O         30.48381        45.69731        -2.78385
H         29.75742        45.11438        -3.09063
O         39.01989        47.26459        -2.15569
H         38.95585        46.50671        -2.77472
O         44.09253        26.16719         1.93503
H         43.95486        26.95778         2.49875
O         39.07943        22.38355         2.08293
H         39.15160        23.32117         2.36351
O         40.95229        25.73887        -1.65566
H         41.77784        25.91619        -2.16629
O         33.05506        37.49108         2.38664
H         32.97856        38.43625         2.64015
O         53.63287        40.03455         2.05029
H         53.21041        39.27169         2.51249
O         35.49322        36.00101         2.27356
H         34.69825        36.49246         2.60707
O         34.22597        31.39959        -1.72515
H         33.62188        30.78733        -2.19888
O         41.52525        43.82904        -2.54463
H         41.70976        44.76540        -2.80191
O         29.36951        41.72073        -1.99868
H         28.56538        41.93637        -2.51548
O         43.85739        47.74772         1.70056
H         44.71732        47.39575         2.01691
O         49.46523        24.48210         1.66607
H         49.03020        24.95842         2.40665
O         39.02319        50.36605         2.43166
H         39.11003        49.38050         2.44217
O         53.12738        39.89235        -1.56668
H         52.43252        40.24007        -2.16470
O         35.36908        33.05494         2.28267
H         35.43973        33.99498         2.58424
O         39.03958        37.92589        -2.03052
H         38.95282        36.95487        -2.20150
O         35.28033        44.56398        -2.43976
H         35.27056        43.63698        -2.76166
O         36.14600        25.13806         1.93836
H         36.05587        24.18204         2.14410
O         31.03010        28.09900        -2.95203
H         30.27675        28.59344        -3.33842
O         41.65851        33.93753         2.32400
H         40.95234        34.57239         2.59936
O         33.92535        46.49694         1.35185
H         33.13282        47.00273         1.63289
O         40.06512        36.21224         1.98576
H         40.73981        36.85170         2.30269
O         47.84389        44.66216        -2.25210
H         47.02827        45.11069        -2.56296
O         30.10289        42.13375         1.56242
H         30.90030        41.92035         2.09069
H         27.21478        26.89836        -1.48345
H         25.95477        28.50804        -0.17876
H         25.92240        30.48748         1.37407
H         26.16474        33.49901         2.79986
H         26.09707        35.98564         2.46333
H         25.79490        37.52935         0.87583
H         25.73834        39.82023         0.04475
H         25.69106        41.81183        -0.11852
H         25.72985        44.19558        -0.66112
H         26.93873        46.34352        -0.79187
H         29.32554        26.01050        -2.33553
H         28.99556        47.60239        -1.17892
H         32.85685        23.57981        -0.99221
H         30.87209        24.89317        -1.57342
H         32.79067        49.81016        -0.85118
H         30.71208        48.55947        -1.15108
H         34.53513        22.59542        -0.76923
H         34.35713        50.76590         0.05906
H         36.55301        21.34782        -0.17870
H         36.44054        51.90232         0.66340
H         40.21266        19.21481        -0.36188
H         38.16479        20.32219         0.36854
H         40.18124        54.05842         1.14771
H         38.09011        52.83805         1.20875
H         42.65110        19.22416        -0.63979
H         42.71370        53.97138         1.47939
H         44.80379        20.41620        -0.71654
H         44.84211        52.79281         1.13210
H         48.58512        22.51824        -0.11807
H         46.47971        21.33425        -0.56775
H         48.60717        50.83133         0.20460
H         46.48967        52.00254         0.44457
H         49.83807        24.04086        -1.39377
H         50.25701        49.88586         0.12279
H         51.97136        25.27268        -1.41918
H         52.35111        48.66748         0.03518
H         56.12359        26.79830         0.07343
H         53.96219        25.56179         0.21991
H         56.09028        46.49328        -0.05691
H         53.97489        47.73730        -0.13436
H         57.34074        28.93151         0.11851
H         57.34733        31.38314         0.25907
H         57.29507        33.26224         0.48054
H         57.27020        35.68689         0.67749
H         57.24221        37.54762        -0.04240
H         57.25339        39.97236        -0.20073
H         57.33437        41.90184         0.15770
H         57.32047        44.36214         0.03612
