         349
 CSIRO Nanostructure Databank - Neutral Graphene Oxide Data Set
C          1.17131         3.51773        -1.03145
C          0.00430         4.28890        -1.21208
C          1.00579         6.19132         0.03385
C         -0.08745         5.60708        -0.81459
C          1.05424         7.71321         0.15236
C         -0.13830         8.45330         0.21923
C          1.12124        10.53633         0.50884
C         -0.10213         9.83297         0.36574
C          1.15471        11.98386         0.50035
C          0.04039        12.70266         0.08228
C          1.16418        14.87073         0.33752
C          0.00621        14.10231         0.11937
C          1.12782        16.29050         0.06334
C         -0.03606        17.03654        -0.16165
C          1.15615        19.19846        -0.32376
C         -0.02554        18.43149        -0.32224
C          1.17241        20.62069        -0.25131
C         -0.03786        21.38131         0.01936
C          1.12019        23.45655        -0.67804
C         -0.05970        22.72894        -0.08406
C          1.15028        24.96197        -0.35706
C         -0.01850        25.71338        -0.96128
C          1.28323        27.79376        -0.97984
C          0.05822        27.03702        -1.21170
C          1.30728        29.20487        -1.04403
C          3.62337         3.44479        -0.58608
C          2.39261         4.13853        -0.60229
C          3.52283         6.19454         0.21407
C          2.32499         5.52231        -0.26275
C          3.52987         7.67861         0.09542
C          2.26624         8.40544         0.36368
C          3.66884        10.40442         0.96147
C          2.32810         9.80241         0.54741
C          3.74839        11.99849         1.19818
C          2.30710        12.74025         1.10584
C          3.63604        14.85021         0.54096
C          2.40454        14.17818         0.60384
C          3.59807        16.36522         0.63758
C          2.41714        16.96841        -0.09053
C          3.67715        19.19021        -0.03369
C          2.43945        18.46772        -0.32700
C          3.72319        20.62517        -0.44839
C          2.40396        21.34940        -0.29939
C          3.63752        23.47723        -0.12258
C          2.41682        22.74507        -0.34263
C          3.65820        24.87691        -0.17551
C          2.48510        25.58824        -0.82134
C          3.64870        27.80627        -0.41402
C          2.47177        27.09695        -0.66693
C          3.68580        29.22897        -0.49973
C          2.48513        29.90730        -0.82951
C          6.12668         3.39720        -0.02900
C          4.93786         4.17602        -0.51025
C          6.07820         6.31195         0.49183
C          4.82464         5.47278         0.27503
C          6.10969         7.59638        -0.36695
C          4.80332         8.40935        -0.18184
C          6.01436        10.55873        -0.02451
C          4.84828         9.85698         0.16308
C          6.01884        12.00133         0.07598
C          4.85664        12.70378         0.41836
C          6.11106        14.86778         0.21376
C          4.86743        14.14143         0.41162
C          6.13914        16.33332         0.61697
C          4.87665        17.07967         0.31690
C          6.12360        19.24306         0.32264
C          4.87587        18.48285         0.19897
C          6.12392        20.64093         0.35150
C          4.89906        21.37865         0.12153
C          6.04961        23.51065         0.73574
C          4.85038        22.74738         0.22120
C          6.07595        24.94263         0.26402
C          4.88486        25.59963         0.03797
C          6.09327        27.87015         0.31359
C          4.83709        27.08783         0.07485
C          6.13274        29.30077        -0.07744
C          4.92771        29.93817        -0.36429
C          8.57917         3.40052         0.31069
C          7.33337         4.08102         0.21653
C          8.53879         6.23839         0.39260
C          7.35129         5.52190         0.30221
C          8.48780         7.70432         0.32559
C          7.34070         8.37845         0.01866
C          8.52956        10.60729         0.06960
C          7.28196         9.81755        -0.49358
C          8.53671        12.01063        -0.52087
C          7.22150        12.74993        -0.35711
C          8.56099        14.92041        -0.36486
C          7.26517        14.20702        -0.14908
C          8.58776        16.40163        -0.17746
C          7.34643        17.11476         0.17902
C          8.63926        19.20135         0.46963
C          7.35058        18.48331         0.29842
C          8.63873        20.67340         0.64801
C          7.35665        21.40798         0.52597
C          8.63937        23.54057         0.85529
C          7.35867        22.77452         0.55098
C          8.65258        24.95762         0.33151
C          7.37177        25.66151        -0.03132
C          8.66503        27.84651         0.25329
C          7.38244        27.11163         0.42479
C          8.62236        29.29909        -0.04481
C          7.39052        29.96258        -0.16529
C         11.04404         3.42788         0.50908
C          9.79178         4.10940         0.44053
C         11.02654         6.22884         0.68647
C          9.79426         5.54384         0.48770
C         11.03903         7.70869         0.73078
C          9.75984         8.44486         0.52541
C         11.14052        10.47672        -0.25828
C          9.80235         9.80516        -0.10338
C         11.14668        11.97006        -0.49037
C          9.85693        12.74882        -0.58163
C         11.03998        14.87388         0.00341
C          9.87317        14.20276        -0.27099
C         11.02784        16.30245         0.40368
C          9.84875        17.07465         0.10879
C         11.16768        19.23903         0.36998
C          9.89612        18.55027        -0.06878
C         11.14718        20.66714         0.39142
C          9.91622        21.40224         0.46503
C         11.12589        23.51303         0.29783
C          9.90504        22.78812         0.50364
C         11.09986        24.90620         0.10121
C          9.85556        25.62477         0.10719
C         11.05647        27.77225        -0.30794
C          9.88976        27.07949        -0.07571
C         11.07850        29.23371        -0.27449
C          9.85586        29.94820        -0.23605
C         13.52610         3.35844         0.86774
C         12.23265         4.11583         0.69417
C         13.50036         6.25445         1.25055
C         12.23151         5.53288         0.82272
C         13.53266         7.71176         0.81424
C         12.33976         8.40619         0.52684
C         13.55536        10.54804         0.55305
C         12.34867         9.78188         0.22694
C         13.56464        12.04155         0.41997
C         12.41137        12.73455        -0.22042
C         13.61049        14.92643         0.41332
C         12.37384        14.22832        -0.05772
C         13.60335        16.28684         0.58027
C         12.33413        17.05158         0.65550
C         13.63086        19.21999         0.57816
C         12.36059        18.52602         0.51389
C         13.62581        20.67025         0.49066
C         12.38054        21.38731         0.40163
C         13.61271        23.53781         0.28416
C         12.37267        22.79395         0.28078
C         13.59443        24.91266         0.05021
C         12.33090        25.52211        -0.52436
C         13.60540        27.82664        -0.39868
C         12.32859        27.05189        -0.56253
C         13.55761        29.29643        -0.20907
C         12.30101        29.93792        -0.25423
C         15.82340         3.57812        -0.20885
C         14.73869         4.18445         0.50626
C         16.05329         6.23647         0.87897
C         14.76497         5.52840         0.81834
C         16.01476         7.71710         1.01243
C         14.78905         8.40835         0.80471
C         16.05788        10.52770         0.61524
C         14.83357         9.82767         0.67520
C         16.06742        11.96814         0.23326
C         14.84242        12.77111         0.34550
C         16.13161        14.85887         0.41616
C         14.86512        14.16179         0.38251
C         16.16847        16.29601         0.73990
C         14.83977        17.04338         0.85855
C         16.13574        19.18946         0.76269
C         14.82775        18.50510         0.71006
C         16.11011        20.68739         0.64620
C         14.82399        21.39646         0.51504
C         16.10259        23.51517         0.47990
C         14.85794        22.82089         0.45535
C         16.09515        24.97356         0.65058
C         14.78914        25.70483         0.33681
C         16.03825        27.84299         0.03547
C         14.85377        27.13368        -0.02551
C         16.02345        29.29663        -0.12222
C         14.77059        29.98203        -0.13054
C         17.83547         3.88066        -1.62577
C         16.96592         4.28354        -0.52452
C         18.62872         6.14004        -0.19618
C         17.27187         5.52942         0.19884
C         18.94094         7.49042         0.37993
C         17.17676         8.47904         1.19575
C         18.61408        10.54078         0.79177
C         17.27529         9.84700         0.85440
C         18.63583        12.01706         0.51379
C         17.36259        12.71398         0.15817
C         18.59978        14.88139         0.20010
C         17.34802        14.18883         0.26813
C         18.60996        16.31873         0.19564
C         17.40397        17.04484         0.43866
C         18.58419        19.15759         0.12861
C         17.38917        18.45037         0.41453
C         18.56267        20.61381        -0.14474
C         17.28703        21.39334         0.05931
C         18.55771        23.53786         0.00938
C         17.33019        22.85130         0.22836
C         18.58888        24.97041         0.05559
C         17.42162        25.72938         0.65307
C         18.47574        27.85514        -0.07935
C         17.31557        27.15965         0.14541
C         18.47873        29.30849        -0.12236
C         17.23044        29.99526        -0.14769
C         18.67996         4.75148        -2.22249
C         19.89135         7.01973        -2.20361
C         18.72711         6.17738        -1.72472
C         20.28560         8.11640        -1.51773
C         19.69971         8.44132        -0.21698
C         21.02564        10.57732        -0.05630
C         19.92655         9.74120         0.55911
C         21.01660        11.93355        -0.19182
C         19.85715        12.72888         0.06834
C         21.01803        14.90592        -0.23231
C         19.82281        14.14757        -0.00408
C         21.02325        16.27752        -0.21685
C         19.82902        17.03223         0.00012
C         21.01236        19.24136        -0.18833
C         19.81573        18.46939        -0.01859
C         21.01450        20.62324        -0.23071
C         19.81536        21.37796        -0.20756
C         20.94433        23.55920        -0.57006
C         19.77166        22.80577        -0.26594
C         20.92224        24.93456        -0.61141
C         19.75369        25.66187        -0.25724
C         20.94492        27.88484         0.22571
C         19.77932        27.16673        -0.40801
C         20.89642        29.24310         0.32368
C         19.69695        29.97379         0.03818
O         15.57538        16.59802         2.05345
O         16.33244        20.06541         1.95024
O         10.59633        12.35517        -1.77831
O         15.24904        25.44943         1.74403
O         10.45850         9.78582        -1.38249
O          3.90224         8.08335        -1.29128
O         18.74575        11.50670         1.90137
O         18.33148         7.79192         1.60945
O         16.76256        12.18906        -1.07377
O          5.19811        27.58287         1.43438
O          8.50530        15.78840        -1.57418
O          8.71784        19.75821         1.82148
O          4.00181         5.48490         1.46457
O          7.32647         9.68870        -1.86709
O         10.30550         8.32881         1.87785
O         17.06351         5.48940         1.63312
O         12.73556        13.58338        -1.34554
O         11.53380        16.57139         1.80002
O         17.64034        20.93064        -1.28476
O         13.06601        27.49867        -1.75816
O          7.72922        12.25545        -1.66818
O          4.20994        12.20670         2.50215
O          2.64465        17.47779        -1.43524
O         13.26539        11.48203         1.74188
O          8.14797        27.44782         1.59957
O          8.65154        23.67194         2.33513
H          8.84779        22.78378         2.70642
O          3.89451         9.80244         2.26113
H          4.19279        10.57524         2.83545
O         13.64858         2.99788         2.25947
H         13.63588         3.83219         2.77837
O          6.22238        16.27967         2.10118
H          6.42609        17.18614         2.42075
O         12.26104        25.07676        -1.92103
H         12.71165        25.77413        -2.45472
O          1.06436        25.07087         1.08000
H          1.10315        26.02044         1.32000
O          9.84735        18.77572        -1.53366
H          9.45665        17.97916        -1.95801
O          3.34560        16.64768         2.05700
H          4.11347        16.28196         2.55562
O          6.27135         7.29484        -1.74736
H          6.59864         8.14641        -2.17001
O          6.08881         6.79391         1.85494
H          5.31310         6.39503         2.31973
O         19.95387        27.37075        -1.85973
H         19.98493        28.33951        -2.01382
O          0.71691         5.74565         1.42197
H          0.71321         4.76392         1.42012
O          3.97076        20.57670        -1.91464
H          3.54132        19.76438        -2.26284
O          5.24007         4.61052        -1.88462
H          5.43290         3.81519        -2.42342
O          8.34420        10.79533         1.48425
H          8.46743         9.94030         1.95244
O          0.94908        23.34739        -2.13613
H          1.03540        22.39892        -2.37336
O         17.50833         6.85492        -2.16769
H         17.54595         6.93905        -3.14348
O         13.47753         6.22861         2.71666
H         14.25603         6.73209         3.03750
O         17.78873        25.87396         2.06188
H         16.94618        25.99860         2.55777
O         19.62955         5.22313         0.30692
H         19.49278         5.15121         1.27604
O          5.87944        23.60611         2.19522
H          6.74419        23.91754         2.56248
O          2.66085        25.39075        -2.25239
H          2.14330        24.59200        -2.52477
O          7.38278        25.78559        -1.50559
H          7.39348        24.88394        -1.89190
O         20.43689         9.37900         1.86552
H         20.23478        10.13229         2.46482
O          1.87773        12.86921         2.48516
H          2.73043        12.73864         3.01071
H          1.18136         2.46278        -1.33853
H         -0.85780         3.81973        -1.70955
H         -1.02020         6.16473        -0.97734
H         -1.10989         7.94697         0.13759
H         -1.05387        10.37881         0.40824
H         -0.85882        12.17762        -0.26746
H         -0.93645        14.60106        -0.14354
H         -1.01778        16.54389        -0.12221
H         -0.99525        18.94182        -0.40605
H         -0.93290        20.84428         0.36490
H         -0.97373        23.29333         0.14963
H         -0.96457        25.17498        -1.12237
H         -0.82031        27.58241        -1.58917
H          0.38139        29.74715        -1.28464
H          3.63582         2.39321        -0.91445
H          2.49262        31.00399        -0.90843
H          6.10130         2.29690         0.00201
H          4.93268        31.01754        -0.58161
H          8.60170         2.30364         0.22942
H          7.39658        31.03495        -0.41536
H         11.05639         2.32944         0.44663
H          9.87708        31.04236        -0.35299
H         13.50486         2.40624         0.28145
H         12.26961        31.03720        -0.20890
H         15.64733         2.59468        -0.67256
H         14.76941        31.08188        -0.09300
H         17.72979         2.85380        -2.00859
H         17.22265        31.09520        -0.17526
H         19.29317         4.44553        -3.08330
H         20.33393         6.79259        -3.18551
H         21.06443         8.77710        -1.92713
H         21.96782        10.04200        -0.24742
H         21.93271        12.42690        -0.54832
H         21.96601        14.37769        -0.40036
H         21.97476        16.80002        -0.38234
H         21.97846        18.72341        -0.25166
H         21.98204        21.13916        -0.30126
H         21.87506        23.03422        -0.82384
H         21.82716        25.48624        -0.90189
H         21.86958        27.33679         0.45748
H         21.77941        29.80462         0.66291
H         19.71370        31.07207         0.08621
