         430
 CSIRO Nanostructure Databank - Neutral Graphene Oxide Data Set
C         27.78949        27.40474         0.57185
C         27.73496        28.79468         0.56465
C         26.53607        29.56367         0.64140
C         27.73590        31.71828         0.54435
C         26.54100        30.94813         0.53667
C         27.79778        33.12699         0.39505
C         26.61216        33.89203         0.17530
C         27.88669        35.96134        -0.06398
C         26.65396        35.24448        -0.05280
C         27.93462        37.37337        -0.30335
C         26.76835        38.11716        -0.68282
C         28.06068        40.15508        -1.08607
C         26.84716        39.42784        -1.12252
C         28.23586        41.41124        -1.71984
C         27.17053        42.03969        -2.44624
C         28.71142        43.71938        -3.31809
C         27.39979        43.15409        -3.20437
C         28.96340        44.71525        -4.28140
C         30.25962        27.33810         0.48152
C         29.02195        26.70574         0.54118
C         30.30018        28.79988         0.31609
C         28.99101        29.53966         0.37489
C         30.29837        31.68708         0.86872
C         28.99045        30.97416         0.77976
C         30.29450        33.14750         0.64331
C         29.06397        33.82693         0.41083
C         30.34413        35.93449         0.20414
C         29.09551        35.23985         0.18645
C         30.37083        37.35375         0.02758
C         29.17687        38.05788        -0.22183
C         30.50215        40.19481        -0.43719
C         29.15617        39.57116        -0.22984
C         30.62883        41.46710        -1.02982
C         29.52119        42.05231        -1.71385
C         31.09739        43.77128        -2.58610
C         29.77414        43.20693        -2.50574
C         31.29625        44.64959        -3.66948
C         30.27028        45.12773        -4.49896
C         32.76798        24.54005         0.55560
C         31.56695        25.22698         0.58447
C         32.76188        27.35623         0.51923
C         31.52846        26.63713         0.54158
C         32.78006        28.80338         0.55652
C         31.56685        29.52870         0.55390
C         32.78748        31.63278         0.77413
C         31.57395        30.93534         0.68609
C         32.76819        33.10587         1.11981
C         31.52063        33.82700         0.65434
C         32.82189        35.92078         0.43812
C         31.56018        35.22586         0.44141
C         32.83845        37.34805         0.30400
C         31.63226        38.05197         0.12613
C         32.86226        40.18892         0.19876
C         31.66501        39.47768        -0.02178
C         32.70595        41.69645         0.21564
C         31.87886        42.18801        -0.94180
C         33.35885        44.17419        -1.27864
C         32.14665        43.36098        -1.64071
C         33.64109        45.49416        -1.88615
C         33.14814        45.92076        -3.12952
C         34.01330        48.16774        -2.89726
C         33.27910        47.23611        -3.61336
C         35.28641        23.09437         0.33818
C         35.25454        24.49742         0.39832
C         33.99968        25.22313         0.48722
C         35.24670        27.36675         0.47002
C         33.99823        26.64753         0.49485
C         35.25639        28.78524         0.54100
C         34.01727        29.50891         0.60800
C         35.26781        31.65253         0.77589
C         34.01975        30.93240         0.70924
C         35.25939        33.08233         0.75630
C         34.04449        33.80967         0.73032
C         35.32198        35.90566         0.14254
C         34.03735        35.19926         0.51916
C         35.31525        37.38105         0.46850
C         34.08823        38.06799         0.41700
C         35.28988        40.20587         0.71480
C         34.06063        39.50214         0.49201
C         35.23741        41.68518         0.86986
C         34.00262        42.44593         0.42472
C         35.24185        44.65703         0.41781
C         34.17792        43.76742        -0.23203
C         35.53803        45.90598        -0.35685
C         34.60083        46.39726        -1.29548
C         35.77704        48.59788        -1.21093
C         34.75931        47.73830        -1.78216
C         35.81788        49.99679        -1.44030
C         37.70981        23.08842         0.16661
C         36.49265        22.40660         0.21678
C         37.71463        24.50802         0.20671
C         36.48338        25.21814         0.32842
C         37.71328        27.36466         0.29632
C         36.48161        26.65236         0.37579
C         37.72073        28.79396         0.42101
C         36.49787        29.49633         0.55806
C         37.73940        31.61455         0.83058
C         36.50375        30.92931         0.72299
C         37.73046        33.05719         1.26801
C         36.51246        33.81568         0.79368
C         37.78386        35.93151         0.82019
C         36.54975        35.18159         0.63113
C         37.78128        37.35886         0.76265
C         36.54301        38.08195         0.61347
C         37.78121        40.28005         0.63734
C         36.50507        39.52164         0.69085
C         37.79034        41.70674         0.93079
C         36.53749        42.41681         1.01823
C         37.88375        44.53545         0.58412
C         36.54728        43.92252         0.82890
C         37.92205        45.94004         0.28893
C         36.75188        46.61017        -0.14899
C         38.00758        48.75841        -0.15197
C         36.84201        47.99960        -0.49960
C         38.02547        50.16286        -0.40242
C         36.89396        50.75599        -1.01447
C         40.22776        20.29753         0.73610
C         39.05667        20.96650         0.62179
C         40.21820        23.14581         0.19401
C         38.99140        22.31760        -0.06436
C         40.20405        24.50892         0.04758
C         38.94601        25.24923         0.07643
C         40.18643        27.41954        -0.23392
C         38.93787        26.64352         0.11410
C         40.19044        28.84464         0.26401
C         38.97338        29.51735         0.45153
C         40.21207        31.66691         0.68922
C         38.96928        30.93618         0.69690
C         40.20480        33.09288         0.77250
C         39.01132        33.79119         0.97727
C         40.24806        35.90952         1.40010
C         38.98220        35.20773         1.00744
C         40.21715        37.38045         1.13566
C         39.04368        38.06097         0.92757
C         40.30252        40.30495         1.14053
C         39.08980        39.53728         0.75468
C         40.31817        41.67603         1.16361
C         39.02843        42.43315         1.38078
C         40.36950        44.50836         0.59428
C         39.04352        43.83411         0.82951
C         40.30105        45.98281         0.87950
C         39.14368        46.66917         0.52099
C         40.37704        48.82440         0.61079
C         39.15670        48.10099         0.37142
C         40.37639        50.25777         0.38121
C         39.21751        50.92127        -0.08254
C         40.42226        53.04349        -0.11604
C         39.25815        52.33437        -0.28277
C         42.66357        20.26930         0.20544
C         41.48757        20.94088         0.42270
C         42.63752        23.07197        -0.25938
C         41.51844        22.44474         0.55243
C         42.66911        24.55151         0.03913
C         41.47289        25.25416         0.03820
C         42.67268        27.40316         0.03424
C         41.47294        26.68483         0.04456
C         42.65888        28.84848         0.13128
C         41.42760        29.55038         0.31531
C         42.69730        31.67283         0.49318
C         41.44295        30.96862         0.50415
C         42.73387        33.10749         0.56928
C         41.44321        33.85535         0.35128
C         42.72048        35.94621         0.91132
C         41.50448        35.26176         0.87532
C         42.76780        37.35613         1.20040
C         41.49819        38.06524         1.42252
C         42.83114        40.24025         1.41648
C         41.53161        39.56003         1.47443
C         42.82119        41.68933         1.42572
C         41.56071        42.41619         1.29992
C         42.75067        44.57552         1.42682
C         41.55612        43.80652         1.20635
C         42.77416        45.96809         1.38450
C         41.46104        46.71928         1.47882
C         42.73842        48.93041         1.52062
C         41.52480        48.16624         1.06265
C         42.79531        50.32657         0.95286
C         41.59652        50.98691         0.56042
C         42.85153        53.08737         0.33684
C         41.62311        52.38207         0.26313
C         43.89983        20.95886        -0.04452
C         45.17075        23.05245        -0.50625
C         43.95665        22.32741        -0.19143
C         45.26338        24.47142        -0.14672
C         43.92991        25.25787         0.18360
C         45.14484        27.37393        -0.20997
C         43.93945        26.70886         0.01932
C         45.11199        28.84475        -0.28880
C         43.87843        29.56187         0.11749
C         45.19385        31.73039         0.13145
C         43.90368        30.95276         0.31170
C         45.20941        33.03733         0.92735
C         43.93689        33.81368         0.67039
C         45.20787        35.94322         0.87067
C         43.96934        35.23355         0.75932
C         45.21260        37.33156         1.09123
C         43.98505        38.05148         1.25404
C         45.28529        40.20470         1.41967
C         44.01450        39.50482         1.42055
C         45.30469        41.65658         1.83789
C         44.00813        42.37462         1.55621
C         45.29669        44.57399         1.72583
C         43.98072        43.82811         1.74288
C         45.24465        46.01336         1.46107
C         44.02167        46.70908         1.43067
C         45.25173        48.86375         1.22795
C         44.02064        48.14886         1.35434
C         45.26436        50.29257         1.08090
C         44.01666        51.01989         0.90949
C         44.01916        52.41395         0.60819
C         47.45280        23.20074        -1.36572
C         46.28842        22.46640        -1.10794
C         47.54289        24.59014        -1.11950
C         46.40519        25.27084        -0.58811
C         47.60798        27.41373        -0.66520
C         46.38008        26.68203        -0.45796
C         47.67060        28.82742        -0.40841
C         46.40934        29.58048        -0.30792
C         47.70958        31.67521         0.20811
C         46.44090        30.88563         0.45285
C         47.67691        33.07376         0.37583
C         46.48835        33.80191         0.64490
C         47.68358        35.96476         0.65478
C         46.47580        35.22208         0.73533
C         47.71853        37.36616         0.79811
C         46.51186        38.04175         1.38910
C         47.71517        40.25898         1.00423
C         46.47567        39.53908         1.20848
C         47.71774        41.68592         1.02407
C         46.52522        42.42212         1.36146
C         47.73068        44.55731         1.09689
C         46.53411        43.81025         1.40230
C         47.74661        45.96570         1.14925
C         46.54730        46.73026         1.66302
C         47.71821        48.85940         1.08880
C         46.50185        48.17332         1.24537
C         47.69868        50.26956         0.96999
C         46.49994        50.96116         0.99238
C         49.96701        24.71549        -1.78729
C         48.75431        25.34782        -1.36046
C         49.98397        27.56937        -1.42705
C         48.77020        26.72877        -1.08047
C         50.14930        28.74944        -0.46822
C         48.86526        29.54113        -0.35903
C         50.16471        31.64524        -0.21222
C         48.90486        30.95736        -0.11769
C         50.21915        33.05792         0.33061
C         48.93339        33.84430         0.04359
C         50.17620        35.99816         0.24012
C         48.98685        35.21259         0.73663
C         50.13049        37.39960         0.24028
C         48.91149        38.10146         0.60078
C         50.10598        40.26635         0.37531
C         48.91066        39.54178         0.67707
C         50.11780        41.69109         0.42588
C         48.91737        42.40598         0.73655
C         50.14010        44.54756         0.54795
C         48.92953        43.83428         0.77746
C         50.15999        45.97226         0.63020
C         48.95006        46.68340         0.91458
C         50.19731        48.77954         0.86630
C         48.97035        48.11429         0.98559
C         51.16893        25.39122        -1.83791
C         52.47980        27.48711        -1.53677
C         51.26901        26.77901        -1.55067
C         52.47477        28.92274        -1.32482
C         51.35109        29.58118        -0.86740
C         52.59850        31.73448        -0.69384
C         51.34367        30.99782        -0.59506
C         52.60513        33.17840        -0.46636
C         51.41303        33.85705        -0.13128
C         52.51982        36.02225        -0.51443
C         51.36943        35.28532        -0.11376
C         52.49251        37.45743        -0.50903
C         51.31057        38.14788        -0.08959
C         52.50446        40.28847        -0.26927
C         51.30405        39.56477        -0.00459
C         52.53078        41.70628        -0.15339
C         51.32861        42.41494         0.17526
C         52.56752        44.55133         0.03983
C         51.34596        43.83265         0.25421
C         52.60360        45.96961         0.14662
C         51.38471        46.68911         0.46073
C         51.37827        48.08592         0.61728
C         54.93865        27.49278        -1.64049
C         53.75041        26.81929        -1.69987
C         54.98881        28.92096        -1.51472
C         53.70701        29.70194        -1.70291
C         55.03701        31.74877        -1.08627
C         53.75886        31.08735        -1.10056
C         55.12477        33.22187        -0.76376
C         53.78587        33.91261        -0.71779
C         54.86390        36.03035        -1.33454
C         53.73892        35.32903        -0.82432
C         54.80236        37.51512        -1.56245
C         53.65105        38.18844        -0.85663
C         54.92761        40.30118        -0.82015
C         53.69181        39.59032        -0.66697
C         54.95446        41.71011        -0.69200
C         53.74526        42.41581        -0.38241
C         54.98198        44.54994        -0.47675
C         53.76468        43.83810        -0.27293
C         54.98998        45.95763        -0.36831
C         53.82871        46.64669        -0.06464
C         56.17823        29.59836        -1.37320
C         56.20037        31.01796        -1.22578
C         56.09988        33.95296        -1.64530
C         55.97641        35.29861        -1.84185
C         56.10940        38.20591        -1.26911
C         56.14186        39.52794        -0.99639
C         56.16130        42.46177        -0.89076
C         56.17525        43.82565        -0.78927
O         34.31965        42.27700         1.85437
O         44.82043        24.74680         1.21870
O         41.40877        38.76206         2.73707
O         45.63898        29.47135        -1.55302
O         44.64624        44.22120         3.01673
O         29.59294        31.24951         2.10297
O         38.59652        39.93204        -0.58212
O         29.62864        29.29030        -0.92228
O         32.58792        45.01935        -4.03687
O         36.48046        43.38639         2.17758
O         37.62707        33.01686         2.73727
H         36.74385        32.65069         2.95794
O         45.26502        32.12926        -1.25819
H         45.28157        31.29551        -1.79165
O         42.20886        22.94805        -1.65834
H         42.87981        23.38289        -2.22565
O         41.17944        46.76437         2.93629
H         41.74573        47.49349         3.30301
O         38.95360        42.52058         2.85193
H         38.11463        43.00199         3.05723
O         45.41322        41.60808         3.30646
H         45.23558        42.53111         3.62154
O         35.38566        35.85256        -1.33419
H         35.44854        34.90730        -1.58890
O         50.35001        32.86971         1.76823
H         51.25313        32.53462         1.94633
O         32.72764        33.16058         2.59216
H         31.88660        32.74076         2.87636
O         40.31648        35.76883         2.87157
H         40.80417        36.54501         3.22632
O         46.70993        37.87400         2.85283
H         46.08852        38.48806         3.30284
O         48.91983        34.06551        -1.38846
H         48.00889        34.30495        -1.65877
O         31.86205        41.99769         1.37141
H         32.44177        41.93762         2.16466
O         40.15478        27.54574        -1.71123
H         39.33348        28.02996        -1.94307
O         53.60509        29.91854        -3.16167
H         54.39664        30.43119        -3.43159
O         54.56031        37.69742        -3.01143
H         54.51323        38.66389        -3.17326
O         41.30634        33.98575        -1.12529
H         42.17707        34.27624        -1.47306
O         49.71647        28.14203        -2.74068
H         49.67632        27.40796        -3.38821
O         41.77510        22.72696         1.95476
H         41.09299        22.26662         2.48629
O         45.20266        32.72877         2.35729
H         45.28648        33.57516         2.84580
O         46.43301        30.45839         1.83752
H         46.20164        31.24273         2.39435
O         46.73286        46.75678         3.13529
H         45.89893        47.09352         3.52848
O         50.42227        28.19901         0.85117
H         50.37706        28.93042         1.50171
O         55.66778        33.30095         0.61253
H         55.75210        34.25320         0.83290
O         28.78000        39.93887         1.16206
H         27.88142        39.57528         1.31640
O         39.02969        22.02760        -1.50934
H         39.97552        21.98614        -1.77507
O         49.16857        35.01451         2.16900
H         49.03142        35.88142         2.60690
O         40.65687        44.43706        -0.86724
H         39.88812        44.83573        -1.32965
O         42.57687        49.11551         3.01810
H         41.91567        49.82999         3.14823
O         34.64227        45.10939         1.66284
H         34.71603        44.35331         2.29459
H         26.85740        26.82671         0.65229
H         25.57470        29.03353         0.70782
H         25.57085        31.46211         0.48302
H         25.63720        33.38670         0.17599
H         25.70885        35.77725        -0.22132
H         25.79684        37.60968        -0.74346
H         25.94230        39.88689        -1.54560
H         26.16044        41.61028        -2.41478
H         26.58286        43.60765        -3.78428
H         28.14185        45.09516        -4.90445
H         28.97444        25.61041         0.61469
H         30.51984        45.82324        -5.31047
H         32.74043        23.44319         0.57624
H         30.63309        24.65123         0.62069
H         34.11262        49.19389        -3.27508
H         32.81431        47.49828        -4.57241
H         34.35730        22.51118         0.36902
H         34.98092        50.49508        -1.94861
H         36.46952        21.31125         0.13958
H         36.87481        51.83711        -1.20538
H         40.23841        19.24782         1.07145
H         38.11884        20.44796         0.86905
H         40.44473        54.12706        -0.30094
H         38.35125        52.86967        -0.59285
H         42.67448        19.16898         0.22105
H         42.86654        54.16637         0.12679
H         44.82307        20.36274        -0.09089
H         44.96139        52.97629         0.60166
H         48.30868        22.66841        -1.80104
H         46.26363        21.39943        -1.37234
H         48.63099        50.83759         0.86056
H         46.53482        52.05471         0.90918
H         49.96416        23.64165        -2.01720
H         50.25025        49.87189         0.95960
H         52.07380        24.81934        -2.08808
H         52.30882        48.66115         0.52949
H         55.88822        26.93763        -1.68120
H         53.76808        25.72656        -1.81047
H         55.93005        46.50503        -0.52783
H         53.87393        47.74107         0.00848
H         57.12674        29.04225        -1.33685
H         57.17418        31.51858        -1.13459
H         56.96848        33.41456        -2.05058
H         56.73584        35.83223        -2.43176
H         57.04867        37.64397        -1.37479
H         57.11342        40.02267        -0.85728
H         57.09185        41.93675        -1.14395
H         57.10805        44.38514        -0.95099
