         313
 CSIRO Nanostructure Databank - Neutral Graphene Oxide Data Set
C         30.45068        31.72288        -1.09615
C         30.50427        32.99280        -1.24345
C         30.43422        36.22329        -1.40774
C         30.40644        37.40893        -1.08513
C         30.39142        40.56303        -0.27220
C         30.15084        41.78114        -0.28027
C         32.91402        28.94953        -1.24031
C         31.78216        29.45665        -1.30553
C         32.93845        31.66116        -1.02901
C         31.48043        30.84986        -1.73753
C         32.87588        33.14857        -1.35807
C         31.57034        33.88316        -1.33345
C         32.69361        35.98924        -0.70110
C         31.62460        35.34758        -1.67914
C         32.76140        37.51363        -0.65500
C         31.52183        38.40025        -0.93587
C         32.72248        40.27166         0.25139
C         31.37315        39.50140         0.11990
C         32.82573        41.67836         0.66322
C         30.89551        42.81133         0.35733
C         32.55376        44.54899         0.17563
C         31.40679        44.05691        -0.01156
C         35.60678        27.38965        -0.64129
C         35.40041        28.78660        -0.85213
C         34.25253        29.45702        -1.12036
C         35.50852        31.68259        -1.06175
C         34.23184        30.94379        -1.53262
C         35.42540        33.16984        -0.87090
C         34.15572        33.92415        -1.19544
C         35.09948        35.96813         0.09479
C         34.12735        35.44170        -0.98610
C         35.19666        37.46740        -0.10840
C         33.91986        38.17102        -0.32800
C         35.18596        40.31588         0.27403
C         33.88728        39.61316        -0.07235
C         35.18557        41.81928        -0.15900
C         33.90100        42.47607         0.33768
C         35.18569        44.70463         0.43199
C         33.89440        43.97386         0.17266
C         35.36132        46.07864         0.91329
C         37.74479        27.20703         0.40803
C         36.61537        26.67787        -0.47170
C         37.81098        28.73573         0.10508
C         36.78583        29.46265        -0.78253
C         37.66070        31.60256         0.17565
C         36.65436        30.93465        -0.43596
C         37.58544        33.06428         0.54594
C         36.45991        33.86897        -0.07761
C         37.60743        35.95045         0.59864
C         36.41114        35.21169         0.12908
C         37.63295        37.43384         0.36858
C         36.38101        38.12992        -0.03636
C         37.66860        40.31425         0.21703
C         36.43866        39.61032        -0.34461
C         37.64989        41.81139         0.32175
C         36.47239        42.49530         0.32863
C         37.70613        44.70217         0.92693
C         36.37292        43.87313         0.98722
C         37.65218        45.98508         1.86041
C         36.34721        46.60684         1.43079
C         40.28927        24.53779         1.00824
C         39.34402        25.17056         0.53359
C         40.16918        27.29395         1.12232
C         39.12356        26.59281         0.17357
C         40.07492        28.78477         1.18232
C         38.89956        29.42647         0.52511
C         40.21354        31.55748         0.32459
C         38.89396        30.91874         0.74097
C         40.18498        33.01882         0.06092
C         38.90593        33.76685         0.24097
C         40.21348        35.93586         0.78111
C         38.91757        35.19793         0.68987
C         40.20005        37.46495         0.67954
C         38.95982        38.05752        -0.07028
C         40.22899        40.36139        -0.07675
C         38.95783        39.56111         0.22617
C         40.23018        41.67169         0.75092
C         38.98220        42.56430         0.38807
C         40.23852        44.62094         1.12048
C         38.93764        43.83641         1.28873
C         40.29500        46.00416         1.73562
C         38.90721        46.77024         1.60955
C         40.19328        48.92119         1.48239
C         39.19846        48.07866         1.56892
C         42.72073        24.59674         1.90872
C         41.30902        25.11046         1.95726
C         42.58910        27.41546         1.70944
C         41.43309        26.63641         1.53860
C         42.61508        28.80377         1.40359
C         41.33926        29.62452         1.41821
C         42.70757        31.56869         0.41078
C         41.39757        30.91701         0.60157
C         42.67270        32.93736        -0.26726
C         41.49437        33.71381         0.31365
C         42.77908        35.94097         0.40524
C         41.52177        35.18200         0.62555
C         42.77565        37.29168         0.26571
C         41.49371        38.03625         0.10852
C         42.81780        40.22675         0.25338
C         41.53300        39.53607        -0.00481
C         42.79881        41.62449         0.87913
C         41.53340        42.48253         0.53349
C         42.81335        44.60851         1.07726
C         41.50952        43.80945         1.37097
C         42.71253        46.07869         0.74978
C         41.43736        46.81566         1.08833
C         42.74757        48.83469         1.08326
C         41.45016        48.34906         1.24182
C         43.69138        25.30771         2.16010
C         45.08045        27.26828         1.42832
C         43.92275        26.77465         2.25009
C         45.11411        28.75312         1.07255
C         43.91022        29.60772         1.47317
C         45.21024        31.70300         0.65864
C         43.88252        30.93875         0.68942
C         45.35449        33.01596        -0.19484
C         43.99262        33.83369        -0.38226
C         45.36951        35.89341         0.20181
C         44.03600        35.09028         0.52089
C         45.24667        37.38484         0.58617
C         44.04329        38.03928        -0.13259
C         45.28513        40.22281         0.12849
C         43.99988        39.53404         0.14875
C         45.22830        41.69952        -0.05389
C         43.98624        42.41182         0.36059
C         45.21582        44.59899         0.02770
C         44.05933        43.87839         0.67150
C         45.16988        46.12982         0.00787
C         44.00626        46.83466         0.55778
C         43.80136        48.18233         0.75855
C         47.42136        27.30358         1.01173
C         46.44105        26.73364         1.52912
C         47.61194        28.70048         0.73338
C         46.41875        29.40388         0.83301
C         47.72488        31.52264         0.77273
C         46.42735        30.82262         0.29590
C         47.75575        33.03717         0.55765
C         46.59892        33.74579         0.43919
C         47.84488        35.99113         0.68381
C         46.54441        35.20234         0.90549
C         47.75293        37.44100         0.31374
C         46.55967        38.11356         0.30842
C         47.78182        40.36684         0.13698
C         46.49235        39.55680         0.13368
C         47.62437        41.63936        -0.69452
C         46.48806        42.48168        -0.16209
C         47.92063        44.52145        -0.12269
C         46.51466        43.83536        -0.06948
C         47.57973        45.97290        -0.27953
C         46.55499        46.60998        -0.03157
C         50.02568        28.76466        -0.26598
C         48.81760        29.36100         0.25802
C         50.11290        31.45363        -0.25830
C         48.91191        30.73687         0.24211
C         50.17427        32.94765        -0.11449
C         49.13148        33.67806         0.76876
C         50.39384        35.97336         0.03057
C         49.14442        35.23624         0.59129
C         50.06492        37.32293        -0.56529
C         49.09484        38.17203         0.23389
C         50.11782        40.24313        -0.73231
C         49.00719        39.59294        -0.28021
C         50.07175        41.66691        -1.13373
C         48.92366        42.37601        -0.94760
C         50.13215        44.37582        -1.41892
C         48.73534        43.88734        -1.25779
C         51.02367        29.24511        -0.83551
C         52.31426        31.53568        -1.27624
C         51.46690        30.62900        -0.42343
C         52.34292        32.75891        -1.12985
C         51.51678        33.70402        -0.29960
C         52.34913        35.91132        -1.37591
C         51.17968        35.03743        -0.96333
C         52.22163        37.11762        -1.58723
C         51.09182        38.08040        -1.45069
C         52.42752        40.27870        -1.38515
C         51.42302        39.39658        -0.73582
C         52.48032        41.49646        -1.56971
C         51.28932        42.33776        -1.90349
C         51.21583        43.79541        -1.52385
O         33.67174        33.55546        -2.52665
O         44.22068        42.13857        -1.04866
O         49.72628        32.35630        -1.36206
O         38.23831        39.78460         1.47398
O         41.70614        46.39071        -0.27584
O         44.84853        45.33122        -1.17581
O         39.53883        35.45130         1.98260
O         41.51786        38.66189        -1.21703
O         42.19295        32.65188        -1.63997
O         38.89328        31.07536         2.17671
O         43.85280        44.28982         2.06199
O         37.48373        36.88777         1.71948
O         35.31178        40.24822         1.64573
O         44.74133        27.70967         0.09769
O         41.65428        34.15071         1.67472
O         31.70025        42.23700         1.37362
O         39.65581        27.96813         2.32036
O         36.01038        32.58422        -2.10217
O         48.73705        35.83048         1.86207
O         34.78369        44.44387        -0.90952
O         43.92431        34.35409        -1.71172
H         43.93035        33.58399        -2.32672
O         47.16773        41.22064        -2.00661
H         46.99610        42.03439        -2.53233
O         48.02631        40.75998         1.51256
H         48.47229        39.99974         1.95846
O         48.61111        44.27354         1.08432
H         48.14773        44.71085         1.82709
O         40.15832        37.97631         2.02317
H         39.53084        37.40008         2.52629
O         36.02539        43.61220         2.35187
H         36.84201        43.33132         2.83104
O         48.00002        44.01357        -2.46714
H         48.59103        43.78290        -3.21458
O         40.82085        25.07734         3.26647
H         40.46404        24.18756         3.46271
O         34.58152        35.75362         1.43721
H         35.26957        36.07222         2.06509
O         37.32726        29.39798        -2.12545
H         37.45690        28.44997        -2.34528
O         31.00573        38.93939         1.36267
H         30.98527        39.64157         2.04530
O         44.11545        27.17780         3.59033
H         43.37657        26.84232         4.13843
O         43.18234        31.75893        -2.24870
H         42.62723        31.24748        -2.88603
O         34.60120        36.03171        -2.20760
H         34.09511        35.61655        -2.94522
O         34.20967        30.94438        -2.96952
H         34.78182        31.69818        -3.26174
O         31.47568        30.99135        -3.10422
H         32.33633        30.65820        -3.45810
O         50.35982        34.82309        -2.09087
H         50.60402        33.97228        -2.51835
O         37.38951        26.99132         1.75142
H         36.56468        27.47610         1.95562
O         32.20460        35.51770         0.56384
H         32.80343        35.83641         1.28214
O         37.59674        45.64115         3.23211
H         37.59605        46.46036         3.76853
O         51.27305        36.25165         1.15729
H         51.52222        37.21043         1.12599
O         40.11184        40.71567        -1.48342
H         40.30380        39.88734        -1.99013
O         41.26524        30.09599         2.79493
H         40.34558        30.53354         2.84750
O         35.18062        41.91775        -1.60404
H         35.20971        42.88154        -1.83082
O         40.53796        45.94416         3.14686
H         40.04925        45.16442         3.49817
O         39.43077        33.52281        -1.09719
O         41.66995        42.89959        -0.82314
H         41.75347        42.11259        -1.40406
O         52.05476        30.55670         0.84634
H         52.87590        30.02626         0.79971
O         42.94858        41.43686         2.29416
H         42.07492        41.14125         2.64798
O         40.22747        41.30226         2.14087
H         39.44955        40.69974         2.29691
O         39.07551        37.81486        -1.48069
H         38.26860        38.16598        -1.92172
O         36.52451        39.69182        -1.78050
H         36.11705        40.54647        -2.07905
O         50.53661        38.39730        -2.71601
H         50.35891        37.56188        -3.19616
O         44.07079        34.60764         1.87040
H         43.92871        35.35726         2.48649
O         44.95828        37.48665         1.99481
H         45.58155        36.88287         2.47210
O         51.82867        39.06965         0.58871
H         52.01718        39.89531         1.08113
O         31.72442        39.06755        -2.17683
H         31.79711        38.39467        -2.88600
O         44.04335        29.91638         2.87693
H         43.18780        30.30701         3.17943
O         49.53960        38.32637         1.62651
H         49.46749        37.42733         2.04807
O         41.51940        43.50296         2.78143
H         42.46713        43.42362         3.05507
O         44.18498        37.88586        -1.56802
H         43.33013        38.17828        -1.96544
O         39.14947        43.07373        -0.95237
H         39.41763        42.33297        -1.54784
O         47.76988        31.35078         2.20857
H         48.45904        31.95964         2.56442
O         45.79301        32.77948        -1.53541
H         45.95711        33.66812        -1.92419
O         37.84143        45.24856        -0.38161
H         38.39603        44.64355        -0.93366
O         51.00681        42.22033        -3.27616
H         51.81715        42.41109        -3.79098
O         49.55692        33.42515         2.12772
H         50.50001        33.70915         2.20057
O         39.50048        26.84241        -1.17507
H         40.22900        26.23820        -1.42734
O         32.88268        31.49829         0.37313
H         32.04387        31.87842         0.71249
O         52.11336        33.86284         0.97415
H         52.72300        34.63253         0.95125
O         32.01872        35.53277        -3.03594
H         31.54342        34.88491        -3.59740
O         45.36593        32.12059         2.02909
H         44.78864        32.90517         2.19420
O         46.35333        35.19111         2.33854
H         47.22562        34.95565         2.73559
O         38.78431        43.45274         2.67196
H         39.57091        42.89518         2.91001
O         46.41676        30.58080        -1.11980
H         47.26652        30.16596        -1.37816
O         45.76752        35.82153        -1.17457
H         45.14362        36.37794        -1.70621
O         37.34579        33.14619         1.96486
H         37.90160        32.41937         2.38509
