         224
 CSIRO Nanostructure Databank - Neutral Graphene Oxide Data Set
C        -11.31497         0.60537        -0.34583
C        -10.30101         1.62029        -0.58759
C         -8.39356         0.61231        -0.95085
C         -7.31590         1.39496        -0.56322
C         -6.12214         0.69525        -0.21611
C         -4.87307         1.38170        -0.16820
C         -3.68612         0.67787         0.06278
C         -2.37677         1.35524        -0.04554
C         -1.15174         0.72185         0.44778
C          0.04798         1.42254         0.48369
C          1.28956         0.68871         0.64303
C          2.57799         1.41255         0.44902
C          3.57879         0.58838        -0.35226
C          4.84165         1.33969        -0.69709
C          6.08172         0.75490        -0.70136
C          7.36030         1.50273        -0.99262
C          8.65200         0.74021        -1.05233
C          9.86275         1.41957        -0.49954
C         11.06320         0.63204        -0.31970
C         -9.99250         2.76465         0.09057
C         -8.73157         3.51148        -0.04328
C         -7.43503         2.92085        -0.62654
C         -6.20501         3.56271         0.01245
C         -4.91860         2.86154        -0.27997
C         -3.64374         3.61063        -0.13215
C         -2.35533         2.85796        -0.15573
C         -1.12877         3.57026         0.21055
C          0.06909         2.87518         0.34811
C          1.29831         3.62844         0.34561
C          2.58407         2.89909         0.32525
C          3.68180         3.55673        -0.43259
C          4.59857         2.73431        -1.04847
C          6.43077         3.80099        -1.03064
C          7.46798         2.95454        -0.65921
C          8.65846         3.56297        -0.17683
C          9.83823         2.73067        -0.08107
C         -8.71212         4.79112         0.41708
C         -7.48314         5.60523         0.73772
C         -6.19956         4.83842         0.47257
C         -4.93935         5.58920         0.75900
C         -3.60727         4.84948         0.74517
C         -2.39399         5.66272         0.34463
C         -1.17959         5.00672         0.17708
C          0.06397         5.74164         0.06991
C          1.30556         4.99979         0.12363
C          2.55783         5.72510        -0.09354
C          3.75318         5.01692        -0.41883
C          4.99069         5.75067        -0.46780
C          6.28078         5.11155        -0.53851
C          7.47658         5.73746        -0.06305
C          8.65713         4.95471         0.06313
C         -7.40656         7.00206         0.12656
C         -6.24749         7.71925         0.12941
C         -4.98015         7.08007         0.58270
C         -3.69394         7.85012         0.42383
C         -2.48209         7.07533         0.03135
C         -1.18308         7.85183        -0.21965
C          0.05700         7.12679         0.00770
C          1.29707         7.88509         0.37355
C          2.55281         7.13441        -0.01982
C          3.76012         7.85615        -0.09377
C          4.98945         7.15308        -0.21045
C          6.23495         7.85343         0.00029
C          7.42754         7.14878         0.15795
C         -6.16561         9.12344        -0.27674
C         -5.03140         9.86810        -0.25730
C         -3.70451         9.31141         0.10679
C         -2.42271         9.98937        -0.25015
C         -1.21257         9.33980        -0.19546
C          0.07372        10.00085        -0.25801
C          1.27224         9.33210        -0.08291
C          2.53894        10.00363        -0.10643
C          3.74276         9.30863        -0.02937
C          5.01291         9.98592         0.05590
C          6.18835         9.29366         0.12034
C        -11.08739        -0.72964        -0.54262
C         -9.81780        -1.44447        -0.69024
C         -8.52364        -0.77062        -0.65562
C         -7.36410        -1.46168        -0.25564
C         -6.14262        -0.72820        -0.08686
C         -4.93813        -1.40656         0.24562
C         -3.70369        -0.73319         0.30231
C         -2.45488        -1.46016         0.46477
C         -1.22136        -0.70312         0.77472
C          0.09075        -1.45720         0.91655
C          1.32663        -0.67564         0.76698
C          2.63873        -1.37857         1.02830
C          3.80174        -0.76000         0.26636
C          4.99427        -1.38868         0.22795
C          6.27421        -0.59122         0.00856
C          7.40054        -1.41878        -0.54625
C          8.62505        -0.79736        -1.18959
C          9.89018        -1.50161        -0.71025
C         11.07901        -0.72262        -0.43061
C         -9.82598        -2.82816        -0.63076
C         -8.63232        -3.61351        -0.41547
C         -7.39060        -2.90489        -0.12085
C         -6.21960        -3.59002         0.15216
C         -4.98092        -2.85348         0.45369
C         -3.65405        -3.59635         0.42992
C         -2.38799        -2.83915         0.36476
C         -1.12480        -3.58071         0.29777
C          0.12697        -2.89742         0.57109
C          1.36208        -3.54467         0.53694
C          2.61302        -2.87370         0.78604
C          3.82253        -3.55695         0.81058
C          5.10685        -2.72355         0.99882
C          6.38917        -3.49133         0.61035
C          7.50655        -2.82044        -0.15340
C          8.61361        -3.63548        -0.81766
C          9.89534        -2.85646        -0.61304
C         -8.65356        -4.99831        -0.47117
C         -7.51107        -5.81565        -0.05750
C         -6.18730        -5.05475         0.28426
C         -4.92746        -5.77169         0.02884
C         -3.69940        -4.97372        -0.12314
C         -2.37802        -5.66974        -0.33264
C         -1.12699        -4.94243        -0.00649
C          0.13471        -5.68693        -0.13672
C          1.44589        -4.96517         0.15455
C          2.66115        -5.71203         0.54972
C          3.82504        -5.01312         0.81978
C          5.10739        -5.74672         1.03127
C          6.37777        -4.99688         0.71674
C          7.53360        -5.73865         0.12213
C          8.67080        -5.05605        -0.33158
C         -7.35977        -7.22119        -0.43988
C         -6.14592        -7.87346        -0.36070
C         -4.89649        -7.13702        -0.21235
C         -3.62045        -7.83119        -0.38937
C         -2.41653        -7.14003        -0.39135
C         -1.13026        -7.84260        -0.53067
C          0.10387        -7.15027        -0.15333
C          1.27221        -7.90904         0.28009
C          2.53866        -7.18293         0.73146
C          3.79973        -7.99683         0.89769
C          5.17522        -7.29697         0.97793
C          6.06291        -7.76606        -0.18827
C          7.41229        -7.10540        -0.14201
C         -6.07422        -9.31458        -0.51215
C         -4.89411        -9.98296        -0.45304
C         -3.61873        -9.29239        -0.40597
C         -2.44519       -10.01205        -0.34070
C         -1.14277        -9.36661        -0.51190
C          0.13554       -10.05119        -0.20622
C          1.28546        -9.38060         0.04482
C          2.58937       -10.15307        -0.02508
C          3.81050        -9.44514         0.52709
C          5.12085       -10.04580         0.13904
C          6.16143        -9.27666        -0.20426
O          1.54166        -7.54179         1.73465
O          7.54685        -2.98168         1.32607
O         -4.28978         3.58440        -1.43133
O         -7.60344         5.82300         2.17547
H         -6.75187         6.22945         2.47522
O         -2.19002         2.02852        -1.34541
O         -9.43368         1.24143        -1.63304
O          1.03196        -5.19726        -1.24391
O          8.32718        -3.76136        -2.23850
H          8.46795        -2.86989        -2.65201
O          3.67625        -9.04129         1.91803
O          5.49205         3.31702        -1.95369
O         -7.39267         3.32777        -2.01850
H         -6.48420         3.16713        -2.35375
O          8.55254        -1.10165        -2.62134
H          8.19560        -0.28308        -3.05550
O          2.88865        -1.15712         2.43405
H          3.78674        -1.56227         2.64558
O         -3.56232         8.81044         1.51403
O         -0.69819        -1.09189         2.09563
O         -4.35249        -3.38504         1.68632
O          8.06510         1.30322        -2.28450
O         -5.04295         6.47181         1.93236
O          2.86441       -10.42656        -1.40769
H          2.04439       -10.74678        -1.83699
O         -2.00804         7.35599        -1.33399
O          5.98978        -5.29963         2.09633
O         -3.11255        -5.03816        -1.46325
O          5.39760        -7.31658        -1.40771
H          5.90964        -7.64049        -2.17836
O          2.89185         0.36823        -1.62769
H          3.48577        -0.14523        -2.21465
O         -1.02439        -8.63106        -1.78927
O         -7.05136        -5.57943         1.32208
O          3.03904         2.21619         1.56468
O          5.25202        -2.31352         2.34062
O         -3.40483         4.32115         2.08159
H         -3.61928         5.04519         2.71177
O          5.84403        -7.76109         2.14892
H          5.32260        -7.50086         2.93597
O          6.73124        -0.26790         1.36514
H          6.38639        -1.01090         1.95879
O          1.31249         7.94946         1.84433
H          2.13271         8.41877         2.10743
H         12.01010        -1.27558        -0.23675
H         11.98141         1.16481        -0.03115
H         10.75900         3.17168         0.33066
H          9.59269         5.44690         0.36650
H          8.34877         7.68768         0.42511
H          7.13837         9.83514         0.24114
H          5.01634        11.08440         0.11509
H          2.55687        11.10071        -0.20132
H          0.08842        11.08816        -0.43576
H         -2.44588        11.08670        -0.34573
H         -5.07502        10.92023        -0.57779
H         -7.10741         9.59949        -0.59056
H         -8.34473         7.49395        -0.17578
H         -9.65124         5.21635         0.80736
H        -10.68918         3.12455         0.86380
H        -12.31583         0.91987        -0.00961
H        -11.95234        -1.39775        -0.39261
H        -10.78827        -3.36211        -0.66440
H         -9.54979        -5.51188        -0.85170
H         -8.25563        -7.78203        -0.74844
H         -7.01875        -9.87005        -0.60742
H         -4.87889       -11.08153        -0.50482
H         -2.47976       -11.10358        -0.20411
H          0.16604       -11.14751        -0.32483
H          2.46243       -11.13333         0.52360
H          5.19508       -11.14351         0.10664
H          7.11569        -9.73354        -0.51039
H          8.26377        -7.62511        -0.61228
H          9.50099        -5.66343        -0.72909
H         10.81441        -3.38760        -0.32164
