         294
 CSIRO Nanostructure Databank - Neutral Graphene Oxide Data Set
C          1.50515         2.65854        -1.24356
C          1.09149         3.39647        -0.19313
C          2.93237         2.62037        -1.52603
C          2.09911         4.13678         0.66352
C          0.98446         6.41385         0.31316
C          1.01525         7.75358         0.36600
C          2.25198         5.59780         0.19684
C          2.27920         8.51987         0.49793
C          1.22059        10.77841        -0.34328
C          1.38602        12.04744        -0.77988
C          2.36249         9.99709         0.18777
C          2.68372        12.72172        -0.76454
C          1.74550        14.85481        -1.95375
C          1.79439        16.20513        -2.14731
C          2.70614        14.23209        -0.96434
C          2.87377        17.01839        -1.64066
C          2.83726        18.41658        -1.54635
C          3.62485         1.41192        -1.47006
C          3.49336         3.43411         0.63936
C          4.99844         1.26528        -1.17408
C          4.72366         4.22477         0.26005
C          3.41637         6.27769         0.97014
C          3.60201         7.73112         0.46148
C          4.71712         5.52734         0.66561
C          4.70899         8.51673         1.20819
C          3.73854        10.52985        -0.18812
C          3.78570        12.03868        -0.33459
C          4.91411         9.88560         0.56856
C          5.19898        12.57183        -0.42383
C          4.09638        14.82179        -1.16109
C          4.11979        16.32909        -1.26819
C          5.27514        14.09078        -0.61194
C          5.23074        17.12540        -0.65242
C          3.87870        19.17450        -0.98717
C          5.06429        18.58434        -0.47130
C          6.02624         2.17224        -0.77221
C          5.87741         3.70224        -0.63034
C          7.27187         1.55907        -0.73781
C          7.25908         4.49758        -0.33305
C          5.97655         6.23115         1.03137
C          5.99185         7.68863         1.36164
C          7.26632         5.45009         0.92049
C          7.27150         8.45836         1.69023
C          6.10088        10.53229         0.70150
C          6.04605        12.05590         0.75062
C          7.42798         9.80705         0.87284
C          7.41765        12.75529         0.74590
C          6.14511        14.90461         0.32119
C          6.11768        16.40121         0.31713
C          7.25822        14.23193         1.13881
C          7.22174        17.18927         1.04013
C          6.16235        19.27716         0.02653
C          7.37054        18.59109         0.44462
C          8.52224         2.23990        -0.55515
C          8.47249         3.61666        -0.24539
C          9.73399         1.54522        -0.72230
C          9.72385         4.36900        -0.17007
C          8.52737         6.35889         1.01419
C          8.54514         7.61640         1.56787
C          9.79586         5.54733         0.80514
C          9.78268         8.41565         1.94765
C          8.52037        10.61391         1.49408
C          8.53088        12.11076         1.61219
C          9.76610         9.91574         1.76763
C          9.83201        12.78998         1.14053
C          8.57917        14.94644         0.99229
C          8.54955        16.41416         1.13283
C          9.77729        14.23447         0.97560
C          9.86413        17.15104         1.02383
C          8.56586        19.24381         0.41037
C          9.90852        18.66348         0.77319
C         11.04862         2.15255        -0.34176
C         11.01995         3.66893        -0.40229
C         12.27892         1.55424        -0.97715
C         12.30361         4.34215        -0.03799
C         10.99553         6.31615         0.27267
C         11.16045         7.81343         2.06064
C         12.31396         5.61860         0.44553
C         12.31485         8.40420         1.58097
C         10.98232        10.52883         0.98587
C         11.02820        12.06282         0.99705
C         12.30993         9.88378         1.36474
C         12.23117        12.72013         0.63231
C         11.01078        14.96645         0.70873
C         11.03790        16.33415         0.64975
C         12.16365        14.15748         0.15048
C         12.31278        17.12400         0.46414
C         10.95737        19.05842        -0.24959
C         12.14282        18.39487        -0.33634
C         13.49484         2.22613        -0.93006
C         13.51428         3.66613        -0.56846
C         14.73834         1.62195        -1.26830
C         14.84396         4.34875        -0.32040
C         13.58109         6.44198         0.52895
C         13.62220         7.61953         1.61186
C         14.81557         5.54565         0.56451
C         14.85094         8.48896         1.30517
C         13.56160        10.62549         1.03558
C         13.50370        12.04090         0.56067
C         14.76642         9.81082         0.59475
C         14.68871        12.67455         0.20804
C         13.51420        14.85341         0.38604
C         13.47316        16.30141        -0.00426
C         14.66133        14.09773        -0.31149
C         14.60355        16.93690        -0.43368
C         13.30194        18.92850        -1.01993
C         14.52896        18.29934        -0.95464
C         15.99338         2.23128        -0.95930
C         16.03631         3.49961        -0.33978
C         17.23863         1.55630        -1.19170
C         17.30962         3.99030         0.30548
C         16.01651         5.87190         1.10463
C         16.08652         7.97832         1.53892
C         17.26954         5.53129         0.34363
C         17.37061         8.51929         1.11366
C         16.08210        10.56754         0.62446
C         15.99977        11.93870        -0.01141
C         17.28815         9.93871         0.76641
C         17.21662        12.79223         0.32359
C         15.95275        14.89884        -0.19440
C         15.88896        16.26558        -0.36489
C         17.21603        14.23026        -0.03741
C         17.08770        17.17405        -0.20527
C         15.74620        18.86383        -1.48741
C         16.99543        18.35682        -1.20505
C         18.47980         2.20278        -0.99233
C         18.53094         3.45414        -0.36449
C         19.75175         1.55626        -1.34531
C         19.84053         4.18747        -0.17777
C         18.58021         6.18346         0.93455
C         18.51187         7.75393         0.94565
C         19.67069         5.71912        -0.07959
C         19.87071         8.44669         1.03588
C         18.55100        10.58260         0.24890
C         18.52370        12.08830         0.44093
C         19.80353         9.98095         0.86520
C         19.77270        12.82846         0.08052
C         18.39921        14.95242        -0.11731
C         18.37948        16.37975        -0.21891
C         19.73997        14.34112         0.24800
C         19.58333        17.06199        -0.12602
C         18.16067        19.00073        -1.77889
C         19.40729        18.96858        -1.19726
C         20.88307         2.27985        -1.42579
C         20.78305         3.78554        -1.34159
C         22.09559         4.51400        -1.20609
C         20.93320         6.52496        -0.32355
C         21.03320         7.86477         0.25036
C         22.13981         5.78560        -0.77548
C         22.24895         8.57988         0.29165
C         21.09882        10.73138         0.74718
C         21.09756        12.14698         0.21423
C         22.32317         9.92399         0.61488
C         22.27605        13.04364         0.37833
C         20.95246        14.99667        -0.46575
C         20.88272        16.51766        -0.37039
C         22.21461        14.35545         0.08541
C         21.91993        17.30717        -0.83909
C         20.69323        19.32337        -1.73903
C         21.83243        18.62071        -1.41522
O         17.83824        12.54281         1.64405
O         19.49170        18.44718         0.11862
O         10.87202         7.18837        -0.58309
O         10.38311         4.38613        -1.51369
O         16.16730         6.73481         2.18191
O          5.26924        15.65096         1.24054
O          5.80246         6.69220         2.42916
O          9.31066        16.82765         2.33871
O         14.16478         4.47155        -1.61720
O         20.32832        10.67282         2.03096
O         18.85459         5.63623         2.17680
O          2.19424         9.53567         1.55114
O         20.43441        12.28187        -1.10142
O          5.30289        16.76275        -2.05431
O         10.64504        10.12950        -0.31681
O         13.11549        10.53016         2.43234
O          3.62258         2.37461         1.25105
O          9.77415         9.34511         3.11135
O          5.13182        14.31486        -2.05721
O         19.76065         6.45976        -1.29765
O         11.85315        14.09161        -1.26327
H         12.67390        13.82475        -1.74934
O          5.76061        11.95165        -1.61992
H          5.67468        12.62158        -2.34372
O          3.10802         6.33241         2.36767
H          2.58560         5.52222         2.60275
O          6.76046        17.37603         2.39557
H          7.55883        17.59400         2.93127
O          7.48444         5.40536        -1.44884
H          8.25824         5.09718        -1.97039
O          2.56261         5.48264        -1.20649
H          3.03554         6.30711        -1.48603
O          7.12244         8.88214         3.05760
H          6.15551         8.93147         3.25593
O         14.55731         9.60169        -0.85150
H         14.28220         8.65111        -0.98611
O          5.33838        12.38997         1.95380
H          5.91101        12.19156         2.72600
O         13.63669         7.09289        -0.78133
H         12.69867         7.27395        -1.05638
O         16.08567        11.71732        -1.47359
H         15.47394        10.94855        -1.64713
O         20.28881         8.17279         2.39947
H         20.45396         9.04480         2.83659
O         16.96550        17.78284         1.11743
H         17.75789        18.35761         1.22815
O         20.16899         4.18513        -2.59205
H         19.98287         5.15528        -2.53421
O         13.78701         6.98165         2.89980
H         14.05301         7.66788         3.54745
O         11.19967         6.75377         2.88645
H         12.14604         6.52363         3.08629
O         20.41919         3.79597         1.08427
H         19.95696         4.35441         1.78291
O          7.33929         4.58458         2.07833
H          6.96484         5.09885         2.83259
O          2.89159         0.26238        -1.56911
H          3.46102        -0.51319        -1.39788
O          7.93306        12.76359        -0.59813
H          7.99560        11.83573        -0.92208
O          4.07378         7.56461        -0.89627
H          4.09521         8.44873        -1.35865
O          3.92358        10.08342        -1.58664
H          4.72983        10.57355        -1.91285
O          1.66416         4.09849         2.04101
H          1.92461         3.21513         2.38882
O         19.91387        14.58485         1.66804
H         19.19529        14.09862         2.13619
O         14.41706        13.98842        -1.75066
H         15.04221        13.29458        -2.07741
O         10.33457        19.29048         2.01534
H         11.19176        18.86406         2.26074
O          8.39000        12.34235         3.03119
H          8.16582        13.29233         3.18636
O         13.74695        14.80645         1.82084
H         14.64535        15.16438         1.99058
O         18.60286        10.29750        -1.16645
H         17.79677        10.69321        -1.57926
O         17.33374         3.55209         1.69796
H         17.91153         4.22166         2.18314
O         11.21916         1.89438         1.11336
H         11.19119         0.92331         1.24789
O          5.44389         4.10830        -1.94757
H          5.94057         4.93580        -2.17330
O          2.33911        14.77844         0.34702
H          1.51228        14.34077         0.63967
O          6.91466        14.35905         2.53488
H          6.29660        15.13648         2.60516
O         20.88253        14.74763        -1.88673
H         20.86580        13.76626        -2.01487
O         12.65532        17.55418         1.83590
H         12.87544        16.73377         2.33634
O         10.09534         4.85474         2.03905
H          9.24162         4.47509         2.36098
O          7.98259         9.59382        -0.45949
H          9.00119         9.72572        -0.45672
O         17.13603         6.06148        -0.98648
H         16.22041         5.93519        -1.31724
O          4.32487         8.81368         2.57224
H          3.91303         7.99000         2.93270
H          0.81078         2.00154        -1.79227
H          0.03648         3.41968         0.11711
H          3.48687         3.56293        -1.67171
H          0.02036         5.88734         0.25169
H          0.07622         8.32535         0.41612
H          0.21429        10.33728        -0.30325
H          0.51184        12.61539        -1.13127
H          0.92906        14.26382        -2.39363
H          0.99970        16.70265        -2.72538
H          1.93162        18.94292        -1.88376
H          5.33121         0.21123        -1.18315
H          3.76328        20.26617        -0.92074
H          7.32357         0.47807        -0.94171
H          6.17058        20.37801         0.00082
H          9.69739         0.46955        -0.95308
H          8.57756        20.28751         0.05584
H         12.25593         0.49636        -1.28415
H         10.83607        20.03105        -0.75249
H         14.73748         0.59255        -1.65732
H         13.21015        19.90891        -1.51185
H         17.22279         0.54264        -1.61997
H         15.66801        19.79179        -2.07626
H         19.75401         0.46655        -1.49761
H         18.04024        19.49803        -2.75385
H         21.84701         1.80829        -1.66846
H         23.02227         4.01145        -1.52394
H         23.11014         6.29922        -0.71720
H         23.18212         8.07893        -0.00518
H         23.29369        10.43741         0.55751
H         23.20757        12.60806         0.77061
H         23.11184        14.97924         0.21821
H         22.89463        16.81300        -0.98319
H         20.76613        20.15657        -2.45450
H         22.77711        18.99583        -1.84010
