         600
 CSIRO Nanostructure Databank - Neutral Graphene Oxide Data Set
C         22.97422        27.39890         0.84529
C         22.94177        28.76769         0.84079
C         22.96486        31.73159         0.67351
C         22.98494        33.09180         0.48779
C         23.00047        36.02425         0.20541
C         23.01244        37.38786         0.00049
C         23.03599        40.22847        -0.69610
C         23.02692        41.62021        -0.78862
C         23.00524        44.55203        -0.85179
C         23.02503        45.92504        -1.15652
C         25.42830        24.55480         0.83191
C         24.22698        25.24545         0.79459
C         25.44256        27.35358         0.94424
C         24.21107        26.65660         0.85375
C         25.40555        28.82414         1.09135
C         24.14271        29.55841         0.85009
C         25.40997        31.62520         0.13738
C         24.15298        30.94251         0.64764
C         25.42320        33.13350         0.24554
C         24.20606        33.83113         0.29508
C         25.42857        35.96400        -0.03791
C         24.20036        35.27022         0.17291
C         25.42970        37.36784        -0.26241
C         24.22221        38.08053        -0.26966
C         25.46458        40.24699        -0.44488
C         24.22622        39.52390        -0.49588
C         25.44683        41.67736        -0.45270
C         24.20389        42.36865        -0.62486
C         25.40753        44.53182        -0.31324
C         24.16962        43.81852        -0.60664
C         25.42647        46.06608        -0.61792
C         24.21979        46.64436        -1.20343
C         25.56271        48.51868        -1.99010
C         24.34450        47.90531        -1.86293
C         28.01859        23.17154         1.22410
C         27.93652        24.52890         0.90089
C         26.66187        25.24295         0.91099
C         27.98933        27.38369         1.12580
C         26.66452        26.65514         0.94934
C         27.91126        28.79999         0.64893
C         26.73031        29.56801         0.95215
C         27.88047        31.68307         0.51951
C         26.70008        31.00639         0.59932
C         27.91419        33.10335         0.22290
C         26.66248        33.82966         0.12655
C         27.90852        35.95806        -0.16724
C         26.66892        35.24053        -0.03117
C         27.95976        37.35061        -0.27899
C         26.69944        38.07223        -0.68359
C         27.91727        40.23638        -0.22030
C         26.69852        39.54602        -0.37519
C         27.90690        41.67264        -0.20879
C         26.68550        42.38841        -0.34097
C         27.91060        44.52909        -0.27815
C         26.70457        43.82082        -0.31846
C         27.92639        46.05136        -0.20275
C         26.72364        46.69557        -0.85422
C         28.05406        48.63921        -1.57881
C         26.77854        47.92679        -1.48413
C         28.12763        49.95797        -2.04925
C         30.41172        23.06126         0.73494
C         29.24218        22.47499         1.21348
C         30.33848        24.44581         0.22791
C         29.12659        25.24166         0.52861
C         30.35828        27.36679         0.22354
C         29.16730        26.63984         0.52371
C         30.39143        28.76856         0.25784
C         29.10132        29.53888         0.11927
C         30.41373        31.65864         0.38564
C         29.16294        30.92344         0.78520
C         30.39671        33.04850         0.21028
C         29.13917        33.75303         0.09174
C         30.47544        35.95001        -0.14997
C         29.15130        35.18215        -0.24819
C         30.41354        37.40025         0.07301
C         29.18833        38.08286        -0.12259
C         30.35121        40.25020         0.23073
C         29.16234        39.52571        -0.05380
C         30.32443        41.67150         0.21474
C         29.13334        42.38885        -0.06984
C         30.38794        44.53913        -0.13833
C         29.14430        43.82473        -0.15039
C         30.42087        45.94518        -0.46224
C         29.22765        46.64936        -0.67662
C         30.51167        48.65973        -1.29944
C         29.25753        47.98165        -1.17772
C         30.54604        50.02365        -1.72132
C         29.33894        50.64249        -2.09959
C         32.93077        20.28389         0.83604
C         31.72739        20.96770         0.84682
C         32.89657        23.07782         0.41362
C         31.66805        22.36335         0.64542
C         32.89945        24.47731         0.17492
C         31.62292        25.16509        -0.11074
C         32.88372        27.36875         0.08775
C         31.60225        26.67586        -0.31705
C         32.87716        28.77200         0.22183
C         31.62304        29.49130         0.26273
C         32.86921        31.63540         0.46232
C         31.63092        30.91649         0.35470
C         32.83805        33.04344         0.52201
C         31.64316        33.77655         0.25771
C         32.86434        35.92897         0.50020
C         31.67449        35.19348         0.23584
C         32.81426        37.35874         0.60668
C         31.61488        38.08695         0.42791
C         32.79147        40.23812         0.67010
C         31.60238        39.54193         0.49237
C         32.83392        41.70608         0.74456
C         31.52722        42.45298         0.53859
C         32.85506        44.52276         0.07447
C         31.60108        43.86425         0.12699
C         32.89552        45.91230        -0.28076
C         31.68708        46.60994        -0.57877
C         32.96862        48.68098        -1.00120
C         31.72120        47.98310        -0.95626
C         33.00365        50.06706        -1.36383
C         31.80412        50.74169        -1.72183
C         33.04865        52.82915        -1.94460
C         31.86635        52.12230        -2.03656
C         35.46769        18.84797         0.82745
C         35.41904        20.24914         0.68315
C         34.15973        20.96062         0.66901
C         35.37535        23.08939         0.34748
C         34.14539        22.37466         0.48052
C         35.35822        24.50748         0.21791
C         34.11488        25.20386         0.14526
C         35.34247        27.35664         0.09202
C         34.10415        26.64905         0.10012
C         35.34611        28.78931         0.16213
C         34.11879        29.48768         0.29403
C         35.34924        31.59860         0.54562
C         34.11971        30.91288         0.46693
C         35.38018        33.02116         0.89688
C         34.04594        33.78826         0.88606
C         35.33546        35.92501         0.80215
C         34.08611        35.24132         0.73252
C         35.34702        37.34163         0.85122
C         34.05672        38.03733         1.00121
C         35.33409        40.26394         0.76105
C         34.05714        39.56090         0.97783
C         35.33088        41.67453         0.56275
C         34.10373        42.41180         0.51498
C         35.34643        44.50489         0.18510
C         34.09567        43.80383         0.27883
C         35.36441        45.91281        -0.05098
C         34.13955        46.60831        -0.32041
C         35.40788        48.70789        -0.64525
C         34.16492        47.99638        -0.65075
C         35.43828        50.07426        -1.01750
C         34.25132        50.77578        -1.35594
C         35.46159        52.96520        -1.39407
C         34.26616        52.19486        -1.59161
C         35.46427        54.36270        -1.22310
C         37.89995        18.83027         0.66806
C         36.67267        18.15890         0.81162
C         37.89527        20.25867         0.55115
C         36.64517        20.96994         0.53989
C         37.85467        23.10845         0.25744
C         36.62497        22.38428         0.37877
C         37.84590        24.51671         0.10809
C         36.59099        25.23693         0.09962
C         37.81941        27.38246        -0.39120
C         36.57003        26.63810         0.00565
C         37.83026        28.83069         0.02507
C         36.59435        29.51021         0.16900
C         37.81774        31.65491         0.38679
C         36.58616        30.92337         0.36041
C         37.82645        33.08643         0.50266
C         36.61226        33.79233         0.69534
C         37.80501        35.94485         0.61807
C         36.58246        35.20498         0.74344
C         37.77375        37.35977         0.63569
C         36.56035        38.06986         0.80386
C         37.77521        40.25223         0.74885
C         36.55210        39.54115         0.78721
C         37.80202        41.65821         0.62466
C         36.57224        42.37579         0.48740
C         37.82036        44.49830         0.34430
C         36.57604        43.79382         0.33475
C         37.82778        45.91465         0.21688
C         36.59973        46.62465        -0.02686
C         37.82557        48.77633        -0.13371
C         36.61650        48.02925        -0.28782
C         37.91136        50.12436        -0.50232
C         36.73792        50.74148        -1.12698
C         37.95281        53.01928        -0.91992
C         36.75207        52.28301        -1.33202
C         37.90102        54.43660        -0.86812
C         36.64203        55.07530        -1.02243
C         40.43738        16.02137         0.69211
C         39.21762        16.70024         0.73554
C         40.36716        18.82945         0.42079
C         39.15454        18.10206         0.61168
C         40.36938        20.25821         0.39453
C         39.11651        20.97468         0.45252
C         40.32402        23.11935         0.28403
C         39.10747        22.40224         0.33038
C         40.32665        24.52512         0.14135
C         39.08276        25.23584         0.04030
C         40.30605        27.36076        -0.03151
C         39.09315        26.64840        -0.06612
C         40.30775        28.80029         0.03507
C         39.04945        29.52262         0.12392
C         40.27201        31.67492         0.38142
C         39.04706        30.95004         0.29043
C         40.29743        33.08250         0.42797
C         39.05919        33.81283         0.46193
C         40.29610        35.95553         0.45452
C         39.05066        35.23194         0.49916
C         40.30807        37.36892         0.48059
C         39.02141        38.13715         0.28807
C         40.31196        40.25003         0.69048
C         39.04952        39.48259         1.00427
C         40.29932        41.66631         0.65519
C         39.05487        42.37665         0.61306
C         40.29896        44.51317         0.51820
C         39.05819        43.79199         0.49996
C         40.28848        45.94216         0.48603
C         39.05439        46.61874         0.35888
C         40.32022        48.84535         0.43313
C         39.00408        48.08525         0.41250
C         40.33076        50.24078        -0.02590
C         39.13022        50.88458        -0.39525
C         40.35764        53.04059        -0.42963
C         39.14302        52.30867        -0.62198
C         40.35089        54.47171        -0.49584
C         39.12955        55.18164        -0.67433
C         40.34947        57.29586        -0.58364
C         39.16053        56.59970        -0.70293
C         42.91944        16.04093         0.50345
C         41.63267        16.71014         0.46157
C         42.80097        18.84484         0.02072
C         41.60214        18.13046         0.28738
C         42.81108        20.25045         0.07454
C         41.59414        20.94685         0.30956
C         42.84163        23.12942         0.08306
C         41.61994        22.41855         0.60487
C         42.81812        24.52717        -0.01724
C         41.56482        25.24504         0.06138
C         42.78996        27.38442        -0.08775
C         41.55560        26.65465        -0.00477
C         42.78042        28.79807        -0.00040
C         41.52719        29.47734         0.14301
C         42.83652        31.66912         0.40518
C         41.52143        30.90983         0.47782
C         42.77757        33.12776         0.25633
C         41.54777        33.80777         0.38164
C         42.76000        35.95783         0.31388
C         41.53473        35.24048         0.38636
C         42.76341        37.38652         0.41998
C         41.52004        38.08732         0.51521
C         42.75939        40.24797         0.55008
C         41.51814        39.53742         0.57652
C         42.77391        41.67217         0.59330
C         41.53802        42.38560         0.59820
C         42.78635        44.52190         0.56198
C         41.53914        43.80945         0.56868
C         42.78404        45.94836         0.51989
C         41.54543        46.66636         0.49770
C         42.79202        48.79345         0.32992
C         41.56976        48.07490         0.40517
C         42.78817        50.22157         0.21001
C         41.56805        50.93277        -0.01962
C         42.80519        53.07077        -0.05636
C         41.57621        52.35045        -0.18871
C         42.81049        54.49279        -0.14780
C         41.58011        55.18982        -0.35313
C         42.81620        57.31736        -0.29874
C         41.57745        56.61188        -0.41405
C         44.05685        16.68846         0.17321
C         45.29744        18.84706        -0.35707
C         44.00673        18.06729        -0.44329
C         45.28110        20.27063        -0.28923
C         44.05668        20.98326        -0.10239
C         45.27736        23.12580        -0.33534
C         44.05567        22.40398        -0.10587
C         45.26291        24.55109        -0.38992
C         44.03571        25.25546        -0.24081
C         45.23817        27.40244        -0.45341
C         44.02436        26.67917        -0.25443
C         45.22931        28.83179        -0.41692
C         44.01862        29.52980        -0.12393
C         45.22193        31.67921        -0.27187
C         44.04189        30.94632        -0.02915
C         45.21863        33.11799        -0.17487
C         43.99471        33.82937         0.05177
C         45.21694        35.96542         0.02994
C         43.98970        35.25384         0.12011
C         45.22839        37.38787         0.21318
C         43.99188        38.10076         0.40931
C         45.21332        40.24872         0.62344
C         43.99073        39.53017         0.51692
C         45.24994        41.65768         0.63472
C         44.01771        42.38482         0.60271
C         45.27519        44.52643         0.58843
C         44.02283        43.80993         0.59064
C         45.26648        45.95670         0.54020
C         44.02436        46.66283         0.49855
C         45.25629        48.81327         0.47099
C         44.02655        48.08622         0.42199
C         45.24378        50.23965         0.45268
C         44.01463        50.94090         0.28712
C         45.23775        53.08927         0.35898
C         44.01543        52.36583         0.18951
C         45.25416        54.51078         0.19004
C         44.04141        55.21647        -0.03599
C         43.99928        56.64744        -0.12658
C         47.71606        18.88170        -0.60505
C         46.51059        18.18214        -0.51943
C         47.74056        20.28487        -0.58625
C         46.51043        20.99418        -0.43806
C         47.72213        23.14479        -0.71785
C         46.50423        22.42105        -0.48442
C         47.70439        24.56480        -0.78903
C         46.47827        25.27589        -0.61714
C         47.66455        27.41887        -0.97904
C         46.46013        26.69837        -0.67509
C         47.64683        28.86618        -0.99109
C         46.43873        29.55980        -0.65058
C         47.64950        31.71297        -0.74621
C         46.43501        30.98277        -0.57623
C         47.65636        33.14187        -0.59448
C         46.43090        33.83664        -0.32328
C         47.66216        35.98450        -0.27674
C         46.43603        35.26336        -0.18393
C         47.67924        37.40285        -0.08507
C         46.45362        38.07504         0.21812
C         47.76206        40.22575         0.71511
C         46.45915        39.47451         0.67777
C         47.73027        41.69961         0.69967
C         46.51773        42.37868         0.66199
C         47.75187        44.55205         0.56341
C         46.50907        43.82714         0.62166
C         47.73999        45.98095         0.52736
C         46.49825        46.68317         0.53651
C         47.71903        48.84598         0.64745
C         46.49107        48.11183         0.54792
C         47.70456        50.25795         0.74501
C         46.46044        50.97257         0.63149
C         47.62916        53.16157         1.14620
C         46.43474        52.38227         0.65604
C         47.68251        54.52969         0.51287
C         46.54638        55.16907         0.15542
C         50.21063        20.34716        -0.87599
C         48.97742        21.02047        -0.77618
C         50.16135        23.16238        -1.18288
C         48.95573        22.44257        -0.88758
C         50.13180        24.58525        -1.29999
C         48.91076        25.28671        -1.07616
C         50.04537        27.41189        -1.72041
C         48.85963        26.70553        -1.20367
C         50.01196        28.92894        -1.81372
C         48.82010        29.60905        -1.26323
C         50.09212        31.74091        -1.14409
C         48.84489        31.01679        -1.07031
C         50.09552        33.15480        -0.93332
C         48.86975        33.86242        -0.71290
C         50.07074        36.03857        -0.73153
C         48.87843        35.29721        -0.55597
C         50.09898        37.45135        -0.57287
C         48.89694        38.12275        -0.23787
C         50.10832        40.39602        -0.26977
C         48.88543        39.58965        -0.03984
C         50.34559        41.59405         0.65616
C         49.01919        42.42893         1.00221
C         50.21922        44.57900         0.43604
C         48.99974        43.86837         0.58120
C         50.20947        46.01904         0.45403
C         48.97421        46.71081         0.54065
C         50.18659        48.85321         0.76628
C         48.96547        48.13825         0.64721
C         50.17608        50.27764         0.92692
C         48.93569        50.98535         0.90778
C         50.13382        53.06397         1.29611
C         48.92846        52.39411         1.07390
C         51.38175        21.03501        -1.14462
C         52.60104        23.10959        -1.71220
C         51.38590        22.43049        -1.34674
C         52.55531        24.54978        -1.98299
C         51.33403        25.32297        -1.65023
C         52.57749        27.47705        -2.20300
C         51.33442        26.69576        -1.77483
C         52.56775        28.91322        -1.72497
C         51.31936        29.71339        -2.02246
C         52.54362        31.74858        -1.21384
C         51.30956        31.07239        -1.37370
C         52.55186        33.17231        -1.06407
C         51.32385        33.85816        -1.01136
C         52.62198        36.07590        -1.06989
C         51.29259        35.32334        -1.11627
C         52.58623        37.51807        -0.75957
C         51.36412        38.17362        -0.67502
C         52.66008        40.38611        -0.59731
C         51.34256        39.65450        -0.69664
C         52.68058        41.81047        -0.20991
C         51.48896        42.47508         0.12960
C         52.66007        44.66308        -0.25125
C         51.44119        43.88020         0.18922
C         52.69077        46.06946         0.31650
C         51.44259        46.74612         0.49887
C         52.66417        48.85784         0.89222
C         51.43121        48.14907         0.72340
C         52.65969        50.26565         1.11673
C         51.39848        50.98838         1.11764
C         51.34848        52.37958         1.31019
C         55.04439        23.13542        -1.89546
C         53.82449        22.44773        -1.85288
C         55.11704        24.53453        -1.84275
C         53.89163        25.30318        -2.11061
C         55.01319        27.43004        -1.51997
C         53.86457        26.75814        -1.85877
C         54.99821        28.85048        -1.27061
C         53.75454        29.57388        -1.38775
C         54.99407        31.69051        -0.93070
C         53.77076        31.01067        -1.18609
C         55.00999        33.12805        -0.78379
C         53.80809        33.87756        -0.91735
C         55.03181        35.98543        -0.46885
C         53.83673        35.29360        -0.81423
C         55.07450        37.41805        -0.43425
C         53.86066        38.20440        -0.60835
C         55.15689        40.32881        -0.44589
C         53.88671        39.59104        -0.48876
C         55.17872        41.77352        -0.14910
C         53.94491        42.49895        -0.12208
C         55.20860        44.60766        -0.02612
C         53.93674        43.89329        -0.01818
C         55.19073        46.10528         0.21269
C         53.88880        46.75969         0.47848
C         55.13311        48.83146         1.06805
C         53.90068        48.14848         0.83697
C         55.09221        50.21819         1.30026
C         53.89129        50.91866         1.31048
C         57.44104        24.55107        -1.01540
C         56.29997        25.23015        -1.45169
C         57.43714        27.39873        -0.81433
C         56.35536        26.73246        -1.62973
C         57.41024        28.77794        -0.63322
C         56.19456        29.53836        -0.93171
C         57.52294        31.65549        -0.68620
C         56.19808        30.94130        -0.79045
C         57.41870        33.08335        -0.20784
C         56.22361        33.81132        -0.42418
C         57.40366        35.89653         0.21669
C         56.21815        35.23006        -0.22223
C         57.41272        37.31823         0.34029
C         56.30092        38.05941        -0.09417
C         57.66934        40.24005         0.12678
C         56.42167        39.52381        -0.28796
C         57.62677        41.69716         0.34481
C         56.41213        42.43531         0.12352
C         57.62071        44.53448         0.63105
C         56.43702        43.85212         0.25795
C         57.61182        45.96546         0.84559
C         56.42137        46.73196         0.73070
C         57.60367        48.71085         1.51786
C         56.39326        48.09337         1.10322
C         58.56766        25.22740        -0.53364
C         59.65789        27.29064         0.25187
C         58.56548        26.62631        -0.38609
C         59.64640        28.64816         0.41660
C         58.54852        29.44811        -0.04627
C         59.68344        31.55722         0.58635
C         58.58572        30.85307         0.02450
C         59.71673        32.92871         0.65015
C         58.58056        33.73143         0.28081
C         59.81113        35.85048         0.78612
C         58.58963        35.14189         0.46920
C         59.82718        37.18097         1.01871
C         58.55521        37.97919         1.09264
C         59.76929        40.20507         1.53960
C         58.79287        39.44205         0.74964
C         59.82039        41.55876         1.45498
C         58.77246        42.34670         0.83427
C         59.99205        44.48154         1.28043
C         58.80336        43.78596         0.91680
C         59.99974        45.84735         1.44266
C         58.80592        46.60898         1.28235
C         58.78090        47.99489         1.58354
O         34.66862        33.32823         2.13896
O         49.71341        28.11784        -2.98940
O         53.13574        24.89670        -3.29863
O         26.12599        29.28226         2.30020
O         36.99426        51.34411        -2.43372
O         33.98016        38.81398         2.24719
O         51.94830        35.78951        -2.34393
O         29.93323        35.51155        -1.44903
O         47.27307        39.59959         1.92729
O         30.83729        24.50966        -1.17584
O         50.81746        41.03309         1.84571
O         25.27478        45.53633         0.74614
O         51.95584        40.19908        -1.90042
O         56.00145        39.95925        -1.61623
O         39.52389        48.65207         1.66393
O         58.82288        39.76668        -0.66378
O         49.07027        40.41515        -1.28215
O         55.31691        45.58906        -1.16613
O         32.05952        42.22123         1.89104
O         42.30020        31.20076         1.69566
O         58.00964        31.76680        -2.08359
H         57.33119        32.26396        -2.58916
O         25.36624        31.34140        -1.31819
H         26.15933        31.75737        -1.72060
O         27.84158        46.38542         1.22524
H         26.93722        46.10843         1.51477
O         52.52855        27.52827        -3.67529
H         52.65129        26.59398        -3.98142
O         47.39661        53.39198         2.58662
H         46.54117        53.86532         2.66803
O         58.13785        38.00188         2.50236
H         58.05195        37.07152         2.80043
O         39.08750        39.18887         2.43130
H         39.05925        40.03773         2.92000
O         26.70339        38.01338        -2.16642
H         26.86587        37.07926        -2.41981
O         28.23986        27.44220         2.57499
H         27.58035        28.08247         2.93831
O         29.27282        30.67758         2.21192
H         29.35439        31.53961         2.66997
O         28.92765        29.78712        -1.31338
H         29.22162        28.98607        -1.79758
O         51.40548        30.01613        -3.44934
H         51.51989        29.14772        -3.90960
O         38.93427        38.43074        -1.14150
H         38.96539        37.57994        -1.62702
O         52.56937        44.83385        -1.71078
H         53.44630        45.18573        -1.99752
O         37.77203        27.42328        -1.87444
H         37.72204        26.49513        -2.18879
O         56.74722        26.93534        -3.03680
H         57.64943        26.56646        -3.14477
O         31.52353        26.89959        -1.76689
H         31.09696        26.09155        -2.14194
O         49.02082        42.54220         2.45076
H         49.73972        41.88990         2.73995
O         43.80347        17.84220        -1.88986
H         42.95514        17.35953        -1.98953
O         41.74163        22.50407         2.08428
H         41.73957        23.45721         2.31824
H         22.03224        26.83271         0.80654
H         21.96930        29.27449         0.76982
H         22.00540        31.25067         0.91143
H         22.03268        33.63514         0.54477
H         22.03860        35.52884         0.39058
H         22.06210        37.93614         0.04338
H         22.08142        39.69354        -0.78718
H         22.06609        42.12553        -0.94971
H         22.04629        44.02821        -0.96280
H         22.09854        46.40240        -1.50700
H         25.41805        23.45748         0.77712
H         23.27687        24.69725         0.72153
H         25.61161        49.48434        -2.50956
H         23.44238        48.37581        -2.27996
H         27.11940        22.63620         1.55796
H         27.21953        50.48853        -2.36369
H         29.24975        21.43845         1.57681
H         29.33257        51.68316        -2.44862
H         32.91071        19.19605         0.97936
H         30.80118        20.39758         0.99795
H         33.04314        53.90355        -2.17293
H         30.95707        52.66237        -2.33077
H         34.54255        18.26859         0.94087
H         34.51756        54.91909        -1.26412
H         36.64764        17.06574         0.90954
H         36.57496        56.16818        -0.94050
H         40.45935        14.93186         0.83854
H         38.30274        16.11606         0.90044
H         40.34879        58.39471        -0.62363
H         38.22925        57.16580        -0.83851
H         42.95014        14.99794         0.85381
H         42.80604        58.41594        -0.34901
H         45.01760        16.15727         0.22981
H         44.92991        57.22345        -0.03336
H         48.64089        18.30607        -0.73774
H         46.53431        17.08807        -0.61139
H         48.64495        55.05693         0.44542
H         46.60700        56.19895        -0.22479
H         50.26383        19.25847        -0.74971
H         50.13568        54.14724         1.47827
H         52.31435        20.46255        -1.22498
H         52.26900        52.95212         1.48322
H         55.96617        22.53935        -1.85577
H         53.86769        21.35215        -1.79747
H         56.02159        50.77957         1.46262
H         53.92407        52.00239         1.48256
H         57.45128        23.45231        -0.99808
H         57.61362        49.77235         1.79766
H         59.43816        24.65306        -0.18680
H         60.51305        26.69357         0.59990
H         60.51015        29.12924         0.89321
H         60.53969        31.00175         0.99221
H         60.60250        33.41076         1.08348
H         60.76246        35.30097         0.78519
H         60.77769        37.69217         1.22885
H         60.47245        39.66397         2.18881
H         60.60236        42.08776         2.01715
H         60.92611        43.92365         1.42892
H         60.92558        46.36460         1.73279
H         59.70860        48.48782         1.90793
