         661
 CSIRO Nanostructure Databank - Neutral Graphene Oxide Data Set
C          6.50211        32.38834         2.30463
C          6.44080        33.68591         1.95013
C          9.04941        28.05550         2.43329
C          8.97778        29.44235         2.17450
C          7.78891        30.16852         2.30642
C          9.03921        32.32620         1.68661
C          7.77142        31.61508         2.29483
C          8.80830        33.61401         0.97313
C          7.53354        34.35327         1.18565
C          8.74389        36.44683         0.36168
C          7.52715        35.86772         1.06893
C          8.70449        37.77827         0.00813
C         11.71522        23.97402         3.19090
C         11.56920        25.20778         2.61470
C         10.37429        26.00843         2.74628
C         11.21862        27.86900         1.21745
C         10.21666        27.27455         2.19549
C         11.44900        29.34732         1.50412
C         10.25035        30.16518         1.85260
C         11.21326        32.11023         0.50038
C         10.19768        31.54621         1.32486
C         11.14459        33.51476         0.10435
C         10.00662        34.29086         0.42461
C         11.01266        36.25149        -0.62378
C          9.91728        35.65409         0.07290
C         10.91542        37.60934        -1.03696
C          9.77605        38.40943        -0.70633
C         10.68132        40.30107        -1.96279
C          9.72741        39.78002        -1.07483
C         10.71195        41.71883        -2.55268
C         13.90501        19.51267         2.66474
C         13.95366        20.94471         2.61917
C         12.87477        21.71352         3.01196
C         14.17479        23.81651         2.49240
C         13.01450        23.19202         3.27757
C         14.02844        25.17450         1.86500
C         12.65179        25.74084         1.74747
C         13.73671        27.72698         0.57477
C         12.50332        27.06326         1.06727
C         13.72553        29.19539         0.34731
C         12.56827        30.02950         0.77422
C         13.44754        31.95550        -0.56896
C         12.36694        31.36584         0.16264
C         13.43636        33.35934        -0.85223
C         12.25078        34.12625        -0.55916
C         13.31180        36.14911        -1.56429
C         12.17902        35.49548        -0.94754
C         13.22697        37.48090        -1.98523
C         11.96090        38.16453        -1.82780
C         13.48455        40.46418        -2.91958
C         11.64965        39.40175        -2.42553
C         13.34371        41.83182        -2.58762
C         12.05492        42.46875        -2.40616
C         13.24939        44.57513        -1.85808
C         12.04452        43.80583        -2.05783
C         13.22911        45.94757        -1.55412
C         16.01938        15.07638         2.18004
C         16.10483        16.49986         2.16543
C         14.98286        17.29706         2.45750
C         16.23765        19.34736         1.89001
C         15.01949        18.71532         2.36021
C         16.28269        20.73862         1.70791
C         15.17732        21.58345         2.11254
C         16.48570        23.63659         1.39473
C         15.26017        22.95402         1.97880
C         16.18615        24.93810         0.66550
C         15.03903        25.66348         0.88815
C         16.12297        27.74595        -0.13009
C         14.88279        27.00772         0.35451
C         15.78028        28.88657        -1.08743
C         14.59276        29.71491        -0.74824
C         15.74446        31.82743        -1.41397
C         14.58112        31.18451        -0.96979
C         15.79457        33.23973        -1.52983
C         14.60857        34.00003        -1.33410
C         15.75304        36.07081        -2.00195
C         14.58902        35.42975        -1.63876
C         15.75308        37.47827        -2.56137
C         14.54818        38.26333        -2.04082
C         15.80163        40.39387        -2.34641
C         14.58996        39.69529        -2.55968
C         15.79138        41.80816        -2.26448
C         14.54737        42.51715        -2.25212
C         15.72562        44.58557        -1.63635
C         14.51159        43.89810        -1.92491
C         15.67829        45.95808        -1.27252
C         14.42431        46.66459        -1.26304
C         15.59869        48.73426        -0.57126
C         14.41989        48.05145        -0.96776
C         15.62561        50.12509        -0.28066
C         18.24995        10.68268         2.06761
C         18.17542        12.01170         1.64813
C         17.03428        12.82826         1.90804
C         18.41160        14.83712         1.52789
C         17.08647        14.22939         1.82999
C         18.55220        16.31925         1.59326
C         17.35052        17.16003         1.81116
C         18.67703        19.27815         1.28563
C         17.39347        18.52866         1.62028
C         18.38088        20.45123         0.37309
C         17.34487        21.33899         0.93883
C         18.25098        23.15007        -0.43329
C         17.35269        22.67010         0.60712
C         17.85929        24.42363        -0.98840
C         17.10678        25.38441        -0.35926
C         18.29264        27.41011        -1.64393
C         17.24392        26.83695        -0.69268
C         18.15806        28.83412        -2.13117
C         16.92127        29.58177        -1.77795
C         18.31472        31.76407        -1.71757
C         17.01006        31.05193        -1.51728
C         18.24550        33.21635        -1.97557
C         17.05626        33.88803        -1.85421
C         18.33367        36.10216        -2.05058
C         17.04720        35.37078        -1.85691
C         18.31148        37.56087        -2.32165
C         17.05494        38.25062        -2.33155
C         18.26180        40.40551        -2.31259
C         17.04370        39.65643        -2.29537
C         18.26215        41.80071        -2.11618
C         17.01458        42.50858        -2.03068
C         18.20178        44.57418        -1.42144
C         16.97657        43.88448        -1.71061
C         18.10912        45.92934        -0.98684
C         16.88386        46.62391        -0.89539
C         17.94239        48.63954         0.13400
C         16.82801        48.00300        -0.45642
C         17.92209        49.98685         0.58063
C         16.74903        50.78956         0.25862
C         17.54580        53.04012         1.08008
C         16.72114        52.23845         0.28268
C         17.96978        54.38472         0.98222
C         20.68913         6.45387         2.75114
C         20.73779         7.83197         2.61379
C         19.51159         8.67094         2.90014
C         20.67751        10.55717         1.72268
C         19.49273         9.98154         2.14130
C         20.65894        11.82103         0.97935
C         19.34073        12.58064         0.93665
C         20.68869        14.69118         0.37858
C         19.31855        14.05908         0.58650
C         20.74032        16.06385         0.26897
C         19.75403        16.93333         0.94959
C         20.80615        18.99136        -0.18347
C         19.80557        18.41099         0.75139
C         20.74902        20.31459        -0.61725
C         19.46685        21.04171        -0.49134
C         20.48962        22.95342        -1.84492
C         19.37487        22.45939        -0.88439
C         20.58285        24.46395        -2.04114
C         19.48150        25.22935        -2.25168
C         20.64200        27.33345        -2.44135
C         19.45020        26.67056        -2.26037
C         20.71361        28.80787        -2.57340
C         19.44503        29.58157        -2.42152
C         20.76589        31.66691        -2.11010
C         19.54772        31.02249        -2.10426
C         20.71903        33.14404        -1.70912
C         19.55009        33.85232        -2.41973
C         20.79174        36.02776        -2.34269
C         19.59838        35.35731        -2.26674
C         20.81792        37.49644        -2.73556
C         19.51997        38.22841        -2.44332
C         20.83968        40.44849        -2.39548
C         19.50707        39.68145        -2.57636
C         20.75181        41.84190        -1.96503
C         19.49842        42.52231        -1.91079
C         20.76322        44.63720        -1.43019
C         19.44454        43.89350        -1.53392
C         20.66607        45.97876        -0.70980
C         19.33028        46.63700        -0.57598
C         20.41624        48.43665         0.82270
C         19.14891        47.80520         0.34023
C         20.40993        49.87899         1.04517
C         19.16199        50.56125         1.08207
C         20.42150        52.65720         1.64319
C         19.23783        51.86580         1.61310
C         20.34310        54.06381         1.83621
C         19.17254        54.87505         1.58475
C         20.44285        56.94660         2.20971
C         19.31978        56.30158         1.68035
C         20.56299        58.34362         2.27858
C         22.99724         3.51458         2.71834
C         21.83339         4.25144         2.80549
C         23.09978         6.29556         2.29624
C         21.86079         5.65991         2.61066
C         23.10755         7.70226         2.04704
C         21.95569         8.46349         2.23391
C         23.18152        10.51811         1.37561
C         22.00041         9.97426         2.15045
C         23.15530        11.86301         0.89197
C         21.92233        12.55148         0.72813
C         23.14539        14.53390        -0.01458
C         21.90580        13.89753         0.27851
C         23.16571        15.91465        -0.49971
C         21.89194        16.73756        -0.33834
C         23.14896        18.84404        -0.83184
C         21.97513        18.21940        -0.41251
C         23.14297        20.22998        -1.16789
C         21.90593        20.94780        -1.16254
C         23.07680        23.01853        -1.69544
C         21.86543        22.33934        -1.51429
C         23.09257        24.54476        -1.75129
C         21.87563        25.06770        -2.52354
C         23.05282        27.22896        -2.89180
C         21.86537        26.59624        -2.60281
C         23.20022        28.76817        -3.09800
C         22.05827        29.44458        -2.26494
C         23.24810        31.61388        -2.36401
C         22.01631        30.96562        -2.34297
C         23.31536        33.08962        -2.12760
C         22.04818        33.86967        -1.89831
C         23.26098        36.00221        -2.23741
C         22.05227        35.32057        -2.21935
C         23.28487        37.46670        -2.15521
C         22.06482        38.22057        -2.27675
C         23.22445        40.30940        -1.74260
C         22.06244        39.64193        -2.10766
C         23.26522        41.81905        -1.71511
C         21.93082        42.46699        -1.42688
C         23.00300        44.25698        -0.07679
C         21.89385        43.75877        -0.95943
C         23.02300        45.73298         0.19750
C         21.79023        46.46396         0.13132
C         22.86869        48.41242         1.15508
C         21.70147        47.73334         0.69123
C         22.85972        49.78877         1.28414
C         21.63341        50.54915         1.24940
C         22.92390        52.59997         1.75153
C         21.67661        51.95808         1.49103
C         22.93367        54.04210         2.02900
C         21.62857        54.78936         2.03076
C         22.88512        56.79596         2.90714
C         21.54728        56.09423         2.78948
C         22.96306        58.17333         2.94306
C         21.77734        58.97820         2.65133
C         23.11977        61.01723         2.86308
C         21.88195        60.37696         2.64492
C         24.23337         4.15484         2.47522
C         25.66565         6.18261         2.17431
C         24.30303         5.52597         2.26994
C         25.64366         7.55773         1.54058
C         24.33462         8.32189         1.49988
C         25.60739        10.40806         0.97297
C         24.37320         9.78426         1.30613
C         25.62052        11.79402         0.65069
C         24.38788        12.50023         0.54314
C         25.62845        14.53849        -0.13517
C         24.38631        13.86181         0.12347
C         25.63205        15.94631        -0.46831
C         24.44009        16.63330        -0.58360
C         25.60868        18.68912        -1.38912
C         24.46082        18.14602        -0.56145
C         25.63204        20.20953        -1.37800
C         24.36335        20.91389        -1.50484
C         25.59882        22.99709        -2.04391
C         24.32345        22.30679        -1.70892
C         25.62049        24.50067        -2.06559
C         24.31483        25.11895        -2.43217
C         26.08233        27.43587        -2.98536
C         24.16949        26.31955        -3.06082
C         25.85164        28.84179        -2.73577
C         24.56158        29.48241        -2.74636
C         25.71713        31.68473        -2.24002
C         24.48315        30.87839        -2.48512
C         25.76039        33.16085        -2.47074
C         24.54214        33.86228        -2.44010
C         25.75551        35.97994        -2.27534
C         24.52655        35.28231        -2.32307
C         25.77928        37.34999        -1.63370
C         24.48534        38.10687        -1.86385
C         25.68296        40.11037        -1.05581
C         24.53535        39.60886        -1.96536
C         25.60713        41.57123        -0.62977
C         24.42296        42.40532        -0.93138
C         25.52137        44.31604         0.20262
C         24.36285        43.66810        -0.38691
C         25.40390        45.56498         0.79914
C         24.15533        46.27995         0.78265
C         25.34296        48.37756         1.49576
C         24.06912        47.59193         1.53224
C         25.36383        49.73637         1.48480
C         24.14839        50.53769         1.17699
C         25.37127        52.51817         2.16620
C         24.14440        51.90938         1.75765
C         25.33196        53.87554         2.68173
C         24.13666        54.59377         2.68441
C         25.44716        56.69163         3.42657
C         24.05992        55.95953         3.20135
C         25.42765        58.13893         3.26358
C         24.24624        58.85166         3.11980
C         24.27263        60.28696         3.06488
C         26.87305         8.35072         1.50665
C         28.08002        10.42851         0.99559
C         26.86118         9.69520         1.13151
C         28.09781        11.78610         0.65423
C         26.85341        12.48584         0.44092
C         28.11115        14.56767        -0.07763
C         26.85368        13.85561         0.07057
C         28.13166        15.89743        -0.47449
C         26.90585        16.65849        -0.65830
C         28.15758        18.79213        -1.28829
C         26.90563        17.99451        -1.00319
C         27.99773        20.20461        -0.65450
C         26.82235        20.88769        -1.31167
C         28.21293        23.02302        -1.63034
C         26.91437        22.26755        -1.80346
C         28.23545        24.52995        -1.75626
C         26.92641        25.25019        -2.00716
C         28.36267        27.34906        -2.04377
C         27.06325        26.68168        -2.38329
C         28.20318        28.83928        -1.94661
C         27.03121        29.50843        -2.27625
C         28.29112        31.67549        -2.43418
C         27.01089        30.97332        -2.11955
C         28.29345        33.17590        -2.46287
C         26.98292        33.86906        -2.41642
C         28.23201        36.00303        -2.14991
C         26.98339        35.28074        -2.31356
C         28.22442        37.44807        -2.15823
C         27.03990        38.17840        -1.92707
C         28.22017        40.29146        -0.98816
C         27.01893        39.72195        -1.74795
C         28.13956        41.40886         0.05169
C         26.83240        42.20393        -0.06186
C         28.04972        44.24344         0.69642
C         26.87988        43.72529        -0.11877
C         27.88678        45.46251         1.51629
C         26.56253        46.15964         1.53760
C         27.80159        48.33337         1.22706
C         26.60233        47.65336         1.88503
C         27.73290        49.75866         1.05168
C         26.61943        50.47695         1.53926
C         27.83302        52.41303         2.58274
C         26.61315        51.81890         2.05668
C         27.80790        53.74322         2.95451
C         26.59775        54.52987         2.98891
C         26.65014        55.89920         3.19973
C         29.32150        12.51324         0.56308
C         30.58062        14.59729         0.28562
C         29.35550        13.87219         0.23641
C         30.64837        15.96112        -0.02642
C         29.43105        16.58566        -0.60733
C         30.54993        18.81151        -0.22121
C         29.43714        18.05992        -0.87993
C         30.47477        20.31727        -0.15129
C         29.28160        21.00567        -0.65801
C         30.48796        23.15052        -0.53720
C         29.33587        22.37300        -0.90423
C         30.45180        24.60501        -0.54308
C         29.30679        25.27022        -1.05661
C         30.30007        27.54223        -0.42507
C         29.04426        26.74354        -0.81130
C         30.45842        28.90996        -0.98391
C         29.41425        29.54174        -1.62608
C         30.78585        31.72411        -1.81421
C         29.54978        30.92936        -2.13766
C         30.68578        33.19509        -1.69247
C         29.51596        33.88628        -2.02004
C         30.65215        36.06049        -1.61707
C         29.46173        35.33152        -1.92713
C         30.72095        37.45006        -1.86586
C         29.52725        38.05066        -2.29121
C         30.69607        40.23007        -0.64467
C         29.45747        40.06094        -1.48475
C         30.67933        41.62030        -0.03354
C         29.35694        42.34435        -0.17771
C         30.50458        44.26571         1.11312
C         29.24687        43.61349         0.63495
C         30.48146        45.65673         1.66000
C         29.12273        46.30662         1.89151
C         30.75181        48.36807         3.56535
C         29.00116        47.63704         1.16633
C         30.45796        49.55963         2.94646
C         29.30326        50.42023         3.24494
C         29.10329        51.64174         2.63953
C         31.83918        16.71303         0.05824
C         32.98393        18.91451         0.17880
C         31.85859        18.12975        -0.06080
C         32.94413        20.35365         0.19759
C         31.72942        21.05577        -0.03354
C         32.83987        23.19906         0.28426
C         31.68136        22.47411        -0.08522
C         32.71360        24.64922         0.66961
C         31.53512        25.34154         0.02603
C         32.81163        27.57522         0.39906
C         31.50253        26.80849         0.12704
C         32.98208        28.83038        -0.45091
C         31.79603        29.55034        -1.00093
C         32.99940        31.72374        -0.73106
C         31.88634        31.01743        -1.14304
C         32.99434        33.17393        -0.82162
C         31.84612        33.87256        -1.19991
C         33.13411        36.02361        -1.18173
C         31.79695        35.36054        -0.93941
C         33.22576        37.36773        -1.57163
C         32.01634        38.22836        -1.74153
C         33.20842        40.41005        -0.62529
C         32.01772        39.73392        -1.24497
C         33.12890        41.77841         0.02855
C         31.76993        42.17930         0.52878
C         32.93351        44.06701         1.78567
C         31.64160        43.34177         1.48984
C         32.87229        45.35530         2.32067
C         31.67541        46.16379         2.43187
C         31.76589        47.35675         3.12896
C         34.11540        21.11119         0.42838
C         35.25428        23.27450         0.82360
C         34.06245        22.51655         0.51621
C         35.27306        24.65550         0.77095
C         34.02888        25.39290         0.51011
C         35.39180        27.45387         0.17367
C         34.06364        26.73585         0.33706
C         35.31936        28.95064         0.36261
C         34.17638        29.63377        -0.08542
C         35.32473        31.78238         0.15567
C         34.16341        31.03894        -0.20252
C         35.36865        33.19230        -0.05959
C         34.21947        33.89400        -0.54596
C         35.67634        35.86209        -0.99646
C         34.29784        35.26777        -0.86452
C         35.66548        37.35577        -1.04492
C         34.55489        37.93044        -1.59577
C         35.62758        40.31413        -0.05899
C         34.48795        40.04784        -0.93393
C         35.46541        41.40697         0.87120
C         34.27594        42.13266         0.95040
C         34.14357        43.32942         1.69951
C         36.45317        25.41110         1.09921
C         37.60125        27.57366         1.39980
C         36.49938        26.79144         0.96342
C         37.61817        28.97388         1.29637
C         36.45531        29.67384         0.77931
C         37.62256        31.83419         1.07731
C         36.45937        31.09497         0.68779
C         37.67196        33.22993         0.88595
C         36.57086        33.91423         0.26749
C         37.86668        36.02549         0.25725
C         36.68417        35.27200        -0.05764
C         37.99423        37.36136        -0.12239
C         36.93956        38.17237        -0.83799
C         36.71778        39.46261        -0.03464
C         38.73722        29.74309         1.72881
C         39.90710        31.91110         2.02114
C         38.75884        31.13312         1.62149
C         39.95247        33.26259         1.83894
C         38.85454        33.97848         1.22875
C         38.93009        35.33777         0.94444
O         26.97129        45.28637         2.64959
O          7.74497        33.60639        -0.07053
O         20.29077        40.18170        -3.73169
O         17.80943        35.87189        -0.67145
O         30.15500        19.43982         1.04810
O         19.76820        11.78537        -0.21117
O         30.82834        45.41086         0.25444
O         24.85218         7.60583         0.31152
O         20.50797        17.79467         1.90025
O         26.33295        31.40773        -0.89401
O         28.36070        32.36273        -3.71302
O         29.81165        17.14723        -1.94940
O         34.70360        39.24554        -2.05612
O         20.24022        47.02164        -1.68627
O         18.53368        27.36660        -0.18332
O         30.55886        31.13640        -3.16175
O         26.33696        22.40182        -3.14903
O         29.57007        39.38244        -2.71285
O         11.29951        29.82738         2.85774
O         18.33147        20.20938        -1.04860
O         13.82371        29.98630         1.57076
O         24.20921        50.74773        -0.38142
O         22.25554        16.15273        -1.63620
O          8.77017        32.30195         3.12141
O         18.99481        15.44839         2.71192
O         12.24134        25.80393         0.33142
O         26.07185        25.07749        -0.77563
O         12.41062        39.80626        -3.52866
O         25.84724        41.71690         0.87964
O         18.09887        52.37615         2.21031
O         28.68729        23.67087        -2.85397
O         19.51666        47.64969         1.73530
O         30.46121        27.40658         1.03767
O         20.01166        29.27922        -3.75623
O         25.20559        26.79437        -3.85960
O         32.10086        39.38089        -2.63879
O         22.90501        33.50473        -0.75805
O         24.62078        56.17487         4.52272
O         18.21913        24.63262        -2.31603
O         32.72190        28.74300        -1.87393
O         22.47865        54.85253         0.84068
O         17.13378        29.10375        -3.13988
O         17.86904        31.35523        -0.36157
O         14.58372        28.80420        -1.91089
O         14.61486        25.04569         3.20873
O         13.38807        23.26933         4.69218
H         13.83194        24.14052         4.81150
O         19.71890        33.57276        -3.83860
H         19.07384        34.10336        -4.35013
O         32.42746        24.64431         2.11974
H         33.21495        24.26728         2.56727
O         24.77703        18.49561         0.82267
H         24.00022        18.29170         1.38493
O         10.58904        27.86250        -0.09426
H         10.68423        26.94802        -0.44636
O         22.95613        29.03196        -4.48651
H         23.55159        28.46450        -5.01923
O         16.62536        28.40019         1.05769
H         17.61085        28.34976         1.04535
O         35.76643        27.28774        -1.23694
H         35.85877        26.32607        -1.40676
O         28.25773        40.88200         1.38775
H         27.35598        40.86673         1.78464
O         21.15447        44.93503        -2.82197
H         20.72584        45.79846        -3.04021
O          6.32657        36.29004         0.40822
H          6.29768        35.84334        -0.46366
O         15.60249        37.35763        -4.00494
H         16.44449        37.03140        -4.38465
O         21.16026        55.73157         4.14930
H         21.14373        56.54994         4.68856
O         18.65243        14.15881        -0.70380
H         19.01292        13.43448        -1.26432
O         14.83152        38.43917        -0.61529
H         14.07538        38.90369        -0.19952
O         19.14253        19.88476         2.51573
H         19.63353        19.18627         3.00733
O         28.09865        26.83401         0.27268
H         28.61797        26.79231         1.10898
O         29.28742        27.07360        -3.14000
H         28.95501        27.50718        -3.95385
O         29.06085        46.53673         3.30658
H         28.09790        46.57418         3.56132
O         26.69764        47.75240         3.34405
H         26.90988        48.69482         3.55932
O         30.49944        39.33631         0.50329
H         29.75172        39.69406         1.04394
O         28.34335        49.90617         4.07536
H         28.74439        49.15066         4.56773
O         22.21009        10.44845         3.53375
H         23.05372        10.06663         3.85690
O         37.46233        38.52477        -2.15456
H         36.75888        39.05328        -2.59618
O         24.77620        39.84587        -3.38126
H         24.54465        40.78316        -3.59025
O         28.73974        50.36494         0.37138
H         28.59045        51.33430         0.36401
O         30.24297        48.14346         4.81992
H         30.39494        47.20857         5.06946
O         33.30661        42.71370        -1.10798
H         32.77593        42.37642        -1.86149
O         27.06392        40.36443        -3.03804
H         27.94611        40.16891        -3.43015
O         25.26390        51.68450        -0.66465
H         24.78186        52.54342        -0.75452
O         27.60443        20.04119         0.73045
H         28.40805        19.77113         1.24217
O         20.39875        33.20198        -0.30846
H         21.23513        33.06027         0.19030
O         22.68063        43.66969         1.24510
H         23.34225        44.00510         1.88858
O         31.52122        35.49810         0.50386
H         32.21925        35.00204         0.98267
O         23.03922        25.02386        -0.38796
H         23.95671        25.04300        -0.03605
O         17.29493        24.04586         2.54953
H         16.70823        24.60103         3.11450
O         26.20012         6.33606         3.50069
H         26.12459         5.47670         3.96409
O         31.21826        42.75387         2.76178
H         31.91671        42.13027         3.05247
O         28.21752        19.00734        -2.72181
H         28.68824        18.22650        -3.09961
O         25.87299        36.89632        -0.22982
H         25.74330        37.67842         0.35676
O         25.55273        39.36899         0.17593
H         25.61050        40.00537         0.92942
O         22.30667        29.12771        -0.87321
H         23.11437        29.60251        -0.58192
O         20.17147        22.39145        -3.15954
H         19.25625        22.66951        -3.38331
O         23.85367        47.21683         2.93905
H         24.73789        47.11422         3.36162
O         20.90502        37.48075        -4.20755
H         20.88294        38.42882        -4.48819
O         36.15715        35.45056        -2.34602
H         36.96318        35.98120        -2.53252
O         27.12644        44.07868        -1.50976
H         26.96209        45.03736        -1.62380
O         22.01095        24.59525        -3.89953
H         21.61521        23.69373        -3.95301
O         32.78849        28.06416         1.77046
H         31.87526        27.92482         2.11529
O         10.37571        41.64229        -3.94357
H         11.03324        41.04678        -4.36840
O         29.33591        42.71420        -1.58279
H         29.90200        43.50595        -1.70091
O         30.08286        48.08045         0.53249
H         29.91026        48.97376         0.15256
O         25.37663        18.33623        -2.77586
H         26.14696        18.67670        -3.28627
O         18.31345         7.92910         2.65809
H         18.24697         7.75925         1.69624
O         23.52351        42.23492        -3.12218
H         22.98165        43.03377        -3.31292
H          5.61879        31.89534         2.73949
H          5.50381        34.24972         2.07407
H          8.19654        27.57698         2.93968
H          6.82810        29.63368         2.34551
H          7.48360        36.29004         2.10969
H          7.80414        38.36607         0.24031
H         10.88916        23.58030         3.80433
H          9.57546        25.61855         3.39675
H          8.89984        40.40838        -0.71348
H          9.92072        42.33531        -2.05610
H         12.97949        19.03097         3.01467
H         11.96236        21.21591         3.37471
H         11.07992        44.31258        -1.89694
H         12.26675        46.48028        -1.52125
H         15.05397        14.62089         2.44965
H         14.04395        16.80947         2.76052
H         13.46985        48.60506        -1.01210
H         14.71695        50.71446        -0.47770
H         17.37125        10.21378         2.53496
H         16.11795        12.34321         2.27788
H         16.03840        52.72976        -0.42765
H         17.37324        55.09753         0.39293
H         19.73429         5.97088         3.00615
H         19.51638         8.91250         3.99990
H         18.48367        56.92320         1.32305
H         19.72036        58.97228         1.95107
H         22.97521         2.42598         2.86600
H         20.87715         3.75905         3.03286
H         23.16545        62.11522         2.84319
H         20.98771        60.98110         2.43475
H         25.15634         3.55550         2.45784
H         26.35629         5.51358         1.58063
H         26.38888        58.67304         3.21130
H         25.23518        60.79949         3.20515
H         27.82129         7.87195         1.79127
H         29.03243         9.90250         1.15862
H         28.73519        54.22087         3.30387
H         27.62407        56.41210         3.19635
H         30.26367        11.99218         0.78987
H         31.48845        14.07496         0.62285
H         31.00760        49.80042         2.02612
H         29.95939        52.07107         2.09428
H         32.77132        16.19725         0.33444
H         33.94958        18.42225         0.36761
H         33.81065        45.80627         2.68177
H         32.75787        47.54329         3.58459
H         35.07231        20.59458         0.59255
H         36.17933        22.72532         1.05399
H         36.30442        41.66595         1.53471
H         35.04879        43.75864         2.15799
H         37.31446        24.87248         1.52436
H         38.46007        27.06302         1.86329
H         38.93930        37.87853         0.10665
H         37.51001        39.70386         0.69379
H         39.61523        29.21933         2.13675
H         40.76488        31.38514         2.46594
H         40.84693        33.83061         2.13462
H         39.84217        35.89747         1.20127
