         480
 CSIRO Nanostructure Databank - Neutral Graphene Oxide Data Set
C         38.17834        49.80663         0.86587
C         36.91643        50.16850         0.39651
C         37.12633        52.32127         1.47268
C         36.38002        51.42087         0.71161
C         40.34871        48.87196         2.48723
C         40.23614        50.22037         2.20239
C         38.95150        50.68774         1.65187
C         40.31592        53.33394         2.20226
C         38.40547        51.96009         1.91523
C         40.29265        54.71713         1.80655
C         42.77973        48.85746         2.26579
C         41.59775        48.20928         2.57269
C         42.80016        50.32615         2.23962
C         41.42962        51.07088         2.33626
C         42.72853        53.19177         1.81402
C         41.41877        52.52746         2.01737
C         42.71710        54.69065         1.45691
C         41.40461        55.33096         1.32716
C         45.22790        46.01872         1.95526
C         44.10465        46.76011         2.31102
C         45.09592        48.77513         1.34778
C         44.00157        48.12203         1.98517
C         45.09227        50.21053         1.15924
C         43.96475        51.02136         1.62465
C         45.11747        53.12167         0.95833
C         43.93005        52.39212         1.45519
C         45.02119        54.52665         0.47436
C         43.88706        55.30177         0.76349
C         45.01318        57.29584        -0.07325
C         43.88704        56.67947         0.47653
C         47.61990        44.42060         1.18752
C         47.33305        45.74826         0.64115
C         46.26377        46.60218         1.21968
C         47.32693        48.63514         0.26747
C         46.20818        47.99282         0.91177
C         47.33770        50.05103         0.11381
C         46.19539        50.81641         0.54787
C         47.16186        52.87193        -0.60038
C         46.28670        52.29050         0.49179
C         47.31387        54.36916        -0.49711
C         46.15545        55.13905        -0.14852
C         47.35370        57.14550        -1.08273
C         46.14609        56.54780        -0.38538
C         47.44655        58.64718        -1.08342
C         49.73268        44.22072        -0.05877
C         48.76312        43.72815         0.82475
C         49.68440        45.63481        -0.61961
C         48.44640        46.41800        -0.14629
C         49.71229        48.56363        -0.23993
C         48.49090        47.89316        -0.08425
C         49.75305        49.98062        -0.36156
C         48.52514        50.69310        -0.34983
C         49.78412        52.87614        -0.87593
C         48.47853        52.12025        -0.74663
C         49.81017        54.31713        -0.63188
C         48.58032        55.03392        -0.62447
C         49.84170        57.17421        -0.33312
C         48.60161        56.45260        -0.60958
C         49.85320        58.68353        -0.46095
C         48.58452        59.32955        -0.89445
C         52.28242        41.36025        -0.06999
C         51.05075        42.00705        -0.06389
C         52.20760        44.20007        -0.70641
C         50.89210        43.41111        -0.43706
C         52.19978        45.66436        -0.39963
C         51.00393        46.34120        -0.34178
C         52.26694        48.54829        -0.07250
C         50.96699        47.79265        -0.07470
C         52.25493        49.99838        -0.37917
C         51.03368        50.66079        -0.51910
C         52.36539        52.84968        -0.65734
C         51.06235        52.09531        -0.84115
C         52.34529        54.29261        -0.39863
C         51.05255        54.97905        -0.07829
C         52.33868        57.14616        -0.31937
C         51.12349        56.45973        -0.32469
C         52.37662        58.59600        -0.51948
C         51.17124        59.32488        -0.69570
C         52.43546        61.35161        -1.12153
C         51.22448        60.68630        -1.04699
C         54.94877        40.07490        -1.15501
C         54.78903        41.23354        -0.19919
C         53.49048        41.99615        -0.36884
C         54.76798        44.21029        -0.32945
C         53.50309        43.43706        -0.63784
C         54.70414        45.66083        -0.08131
C         53.47676        46.35634        -0.19267
C         54.74403        48.45423        -0.12846
C         53.51808        47.77335        -0.18089
C         54.80188        49.91434        -0.50527
C         53.51443        50.69137        -0.37203
C         54.78732        52.82763        -0.10636
C         53.57777        52.08349        -0.34256
C         54.77782        54.21325        -0.10778
C         53.54769        54.97338        -0.24274
C         54.83548        57.10408        -0.26699
C         53.57601        56.41918        -0.21204
C         54.87784        58.55723        -0.42462
C         53.62905        59.27904        -0.58829
C         54.89061        61.42221        -0.78706
C         53.64742        60.68407        -0.84430
C         54.98268        62.78814        -1.02928
C         57.40400        40.21563        -1.03403
C         56.16787        39.57076        -1.44885
C         57.30120        41.49989        -0.36625
C         56.03759        42.08361        -0.15259
C         57.10207        44.19610         0.50062
C         55.96711        43.48070         0.10786
C         57.13913        45.61094         0.47126
C         55.91679        46.34294         0.18310
C         57.21450        48.46437         0.26134
C         55.94236        47.75883         0.13424
C         57.25560        49.82961         0.12237
C         55.98560        50.59087         0.14135
C         57.34090        52.74874         0.18247
C         56.02158        52.07553         0.23918
C         57.33289        54.22073         0.30008
C         56.01778        54.96423         0.18274
C         57.32572        57.04601        -0.54168
C         56.03247        56.40164        -0.14242
C         57.36804        58.53544        -0.32449
C         56.10546        59.23250        -0.35773
C         57.43718        61.44907        -0.48209
C         56.10298        60.71137        -0.36183
C         57.44424        62.80013        -1.06286
C         56.21793        63.45627        -1.16610
C         60.10704        37.84415        -2.00757
C         58.85256        38.36489        -1.81044
C         59.87638        40.60568        -1.25603
C         58.66503        39.69452        -1.32397
C         59.75782        41.68741        -0.20566
C         58.48304        42.18439         0.06876
C         59.53608        44.17142         1.16675
C         58.27041        43.38092         0.98088
C         59.55286        45.55797         1.10598
C         58.35990        46.29663         0.71045
C         59.65970        48.38949         0.69275
C         58.43402        47.71217         0.54947
C         59.66691        49.90816         0.78487
C         58.57065        50.53930        -0.06837
C         59.80341        52.71396         0.11836
C         58.52296        52.04487         0.12537
C         59.83071        54.16174        -0.32155
C         58.58681        54.95346         0.02670
C         59.83091        57.03384        -0.29445
C         58.58382        56.31188        -0.13842
C         59.83449        58.41222        -0.49322
C         58.61186        59.16908        -0.39134
C         59.96911        61.29515        -0.89199
C         58.70545        60.64952        -0.43815
C         59.90107        62.50992        -1.77199
C         58.67445        63.38961        -1.54606
C         59.87852        65.14465        -2.71958
C         58.70079        64.65532        -2.09628
C         62.74523        36.87578        -2.91237
C         62.66602        37.93459        -1.83037
C         61.29736        38.59811        -1.72423
C         62.37747        40.59302        -0.74324
C         61.20062        39.88911        -1.24233
C         62.21602        41.73895         0.12257
C         60.93055        42.25306         0.36659
C         61.99360        44.09201         1.78280
C         60.74138        43.30311         1.44175
C         61.94544        45.61507         1.89860
C         60.77445        46.31056         1.33390
C         62.18670        48.33121         0.74360
C         60.84406        47.67291         1.02262
C         62.17968        49.85262         0.74171
C         61.00527        50.57291         0.51343
C         62.28184        52.72384         0.16477
C         60.99144        51.99561         0.25594
C         62.30876        54.21365         0.29514
C         61.08211        54.92886         0.02238
C         62.30331        57.06866         0.04200
C         61.07067        56.31262        -0.07874
C         62.35665        58.37265        -0.37898
C         61.13698        59.01690        -0.98924
C         62.41900        61.20854        -1.10627
C         61.22231        60.52017        -1.00574
C         62.45537        62.63788        -1.49919
C         61.23464        63.24481        -1.86275
C         63.02564        65.59595        -2.37673
C         61.07670        64.46720        -2.59908
C         63.00714        66.99055        -2.31065
C         65.20565        37.08926        -2.94646
C         63.92499        36.47487        -3.40000
C         65.12869        38.39287        -2.23577
C         63.73885        39.01878        -2.08475
C         64.81141        40.60754        -0.37375
C         63.64177        40.07465        -1.00515
C         64.68722        41.74137         0.44293
C         63.40279        42.33702         0.71864
C         64.48272        44.12882         2.14443
C         63.29886        43.45528         1.56753
C         64.47411        45.62655         2.37557
C         63.18096        46.44634         2.25891
C         64.52551        48.41261         1.67058
C         63.34977        47.72137         1.48927
C         64.56410        49.82990         1.37581
C         63.43371        50.51690         0.88670
C         64.61549        52.71958         1.18632
C         63.53084        51.95681         0.54419
C         64.64913        54.19923         1.16475
C         63.45319        54.90039         0.63644
C         64.80264        56.99307         0.25912
C         63.47375        56.42185         0.74313
C         64.81638        58.37602        -0.22729
C         63.61314        59.09885        -0.44416
C         64.88521        61.17110        -0.83085
C         63.65300        60.47191        -0.83371
C         64.89206        62.59793        -1.07025
C         63.75972        63.32509        -1.46491
C         65.01976        65.51613        -1.08632
C         63.91880        64.79168        -1.64032
C         65.03441        66.92375        -1.00617
C         63.96177        67.65118        -1.54023
C         67.90505        34.80777        -4.10435
C         66.68032        35.34516        -3.93129
C         67.59997        36.83030        -2.10415
C         66.37061        36.15020        -2.69133
C         67.49456        38.03622        -1.39623
C         66.24057        38.78978        -1.33790
C         67.19221        40.27334         0.37432
C         66.08119        39.89194        -0.52004
C         67.10764        41.56531         1.12890
C         65.93151        42.48415         0.86241
C         67.04268        44.23590         2.21693
C         65.79483        43.37065         2.10274
C         66.99041        45.64548         2.43642
C         65.76265        46.36539         2.36377
C         66.94409        48.53500         2.28080
C         65.74408        47.77769         2.17968
C         66.96042        49.93734         2.07814
C         65.72508        50.56470         1.75632
C         67.40742        53.03670         1.97325
C         65.53050        51.98175         1.88544
C         67.31203        54.27618         1.28933
C         65.99799        54.96935         1.12895
C         67.23775        56.79152        -0.17110
C         65.96545        56.27274         0.39921
C         67.28763        58.24750        -0.54178
C         66.04736        59.03352        -0.44895
C         67.38496        61.09505        -0.52163
C         66.10371        60.43291        -0.64682
C         67.33682        62.54722        -0.29269
C         66.19913        63.28626        -0.91693
C         67.45826        65.47330        -0.29695
C         66.26533        64.77942        -0.84214
C         67.44356        66.88152        -0.14436
C         66.14864        67.67198        -0.28838
C         67.60224        69.65428        -0.61149
C         66.48676        68.99953        -0.94940
C         70.57753        32.21490        -2.48934
C         70.55903        33.60151        -2.30847
C         68.95696        35.09473        -3.15906
C         70.07251        36.57416        -1.49497
C         68.84144        36.08614        -2.19387
C         69.97793        37.95619        -0.80419
C         68.64763        38.58246        -0.69772
C         69.65134        40.26358         0.81330
C         68.51680        39.67437         0.15044
C         69.55904        41.58234         1.40144
C         68.35707        42.23816         1.55737
C         69.50338        44.28081         2.41494
C         68.27992        43.59448         2.06764
C         69.43283        45.67019         2.79060
C         68.22865        46.35425         2.65598
C         69.49256        48.57619         2.69498
C         68.18148        47.84068         2.72554
C         69.55117        49.96082         2.17415
C         68.28437        50.62854         1.70298
C         69.68099        52.68816         1.30720
C         68.45145        52.14140         1.77249
C         69.72803        54.05275         0.89130
C         68.50831        54.77617         0.77261
C         69.79185        56.86300         0.36427
C         68.52793        56.08036         0.07375
C         69.86225        58.25373        -0.20007
C         68.62266        58.97146        -0.54124
C         69.85529        61.12686        -0.18702
C         68.59446        60.43291        -0.38679
C         69.87905        62.53637        -0.03547
C         68.60838        63.28314         0.00938
C         69.87070        65.43724         0.13703
C         68.64464        64.75989        -0.09768
C         69.86562        66.86267         0.25194
C         68.62585        67.55859         0.16870
C         69.89541        69.75121         0.43395
C         68.55226        69.05422         0.40379
C         69.91223        71.15178         0.50837
C         71.47788        31.96700        -0.25825
C         71.04117        31.39556        -1.45704
C         71.47151        33.35218        -0.09421
C         71.01537        34.20516        -1.12025
C         72.13399        36.18628        -0.20316
C         71.09346        35.66524        -0.96123
C         72.12745        37.49747         0.31547
C         71.01092        38.32144         0.18709
C         71.89145        40.05866         1.80620
C         70.86338        39.55333         0.90442
C         71.87992        41.34032         2.22711
C         70.87125        42.29053         1.63024
C         71.95246        44.33095         2.62439
C         70.74006        43.62839         2.31111
C         71.94599        45.61055         3.06548
C         70.68405        46.40071         3.26725
C         71.97649        48.59972         2.82818
C         70.76409        47.75535         2.51415
C         71.98211        49.89919         2.47587
C         70.77732        50.56514         1.97215
C         72.08414        52.49429         0.98976
C         70.87379        51.90198         1.39137
C         72.13972        53.81995         0.55789
C         70.99231        54.64904         0.52231
C         72.25450        56.77115         0.05758
C         71.05467        56.04977         0.21949
C         72.27794        58.15815        -0.04250
C         71.07267        58.93255        -0.16545
C         72.28815        61.12454        -0.15856
C         71.08356        60.39940        -0.21400
C         72.30011        62.50971        -0.03928
C         71.10019        63.24526         0.04952
C         72.27623        65.41726         0.45343
C         71.09958        64.70239         0.22394
C         72.27593        66.81677         0.55528
C         71.10239        67.56383         0.43962
C         72.31941        69.75764         0.55454
C         71.11136        69.03147         0.48016
C         72.32232        71.14855         0.60475
C         71.11495        71.85237         0.59062
O         66.79041        40.32501         1.80731
O         61.69745        44.74230         3.06571
O         51.39551        43.75655        -1.78634
O         56.74092        61.34306         0.79984
O         51.87116        52.45464        -2.01183
O         66.63297        64.03758        -2.09605
O         42.28148        50.85548         3.50112
O         55.78047        51.22202         1.44083
O         65.18094        54.90162         2.34468
O         49.72523        58.08779         0.86634
O         68.76474        48.43174         3.96671
O         39.08622        52.88353         2.70882
O         43.01821        54.23166         2.81266
O         64.31766        44.68345         3.49970
O         67.99571        58.49535        -1.79670
O         63.21401        52.24464        -0.86396
O         65.56088        38.31664        -3.65886
O         70.55091        37.79119        -2.14279
O         47.28070        45.87209        -0.84602
O         51.60035        48.19458         1.20352
O         67.90085        55.98910        -1.23145
O         66.36425        52.62771         2.80010
O         62.15890        64.99786        -3.30083
O         59.61038        61.33422         0.52481
O         46.34140        52.93414         1.78754
O         56.62402        54.68151         1.50966
O         54.40044        43.86347        -1.72545
O         70.13906        34.38922        -3.39718
O         67.66296        62.88690         1.09709
O         49.01859        52.42113        -2.07490
O         46.41606        52.60998        -1.83380
H         47.07626        52.63120        -2.56482
O         59.78572        54.07402        -1.79517
H         59.76222        54.99098        -2.14696
O         59.33988        50.21677         2.16688
H         59.97766        49.75557         2.75088
O         65.88111        35.20297        -1.68719
H         66.60495        34.57142        -1.49232
O         61.15577        58.64865        -2.42391
H         61.97414        59.02323        -2.81501
O         57.35063        56.88162        -2.02967
H         56.63071        57.44010        -2.39571
O         59.85926        41.35109        -2.53605
H         60.14963        40.73004        -3.23812
O         47.20411        56.79103        -2.50985
H         47.08919        55.81677        -2.55560
O         49.56483        45.58530        -2.06588
H         48.63019        45.34042        -2.25418
O         62.97958        37.31438        -0.56092
H         62.31117        36.62201        -0.37974
O         65.63649        67.94690         1.04211
H         66.31941        68.49656         1.50556
O         55.12764        49.93307        -1.93875
H         54.36424        49.56495        -2.43240
O         70.59115        46.64940         4.68598
H         69.82339        47.25864         4.83033
O         60.46950        42.51509         2.65992
H         60.69730        43.10600         3.41590
O         54.69335        40.62567         1.14225
H         55.56750        40.23105         1.34934
O         71.39139        42.61704         0.28608
H         70.78660        43.27905        -0.11160
O         69.64705        57.10159         1.83001
H         70.48609        57.50339         2.14371
O         68.26801        50.38413         0.23373
H         69.03036        50.86611        -0.15562
O         66.27553        43.37238        -0.23910
H         66.18750        42.87748        -1.08083
O         57.86455        42.84919         2.28634
H         58.68813        42.46225         2.68406
O         62.92107        46.92936         3.61395
H         62.85058        46.11919         4.17133
O         59.68287        61.92935        -3.10976
H         59.69339        62.66859        -3.75557
O         63.40037        39.67645        -3.32652
H         64.07197        39.38450        -3.99039
O         62.43430        47.97695        -0.67067
H         61.84355        48.53238        -1.22490
O         65.78018        42.49017         3.24521
H         65.44286        43.01305         4.00588
O         50.89771        54.80821         1.40450
H         50.42105        55.59567         1.74925
O         67.94959        69.26325         1.72993
H         68.54643        68.85519         2.39246
O         58.96088        50.30676        -1.45163
H         58.29882        50.72803        -2.03911
O         63.30392        56.77579         2.14699
H         63.97997        56.26065         2.65315
O         70.83423        47.40918         1.10272
H         70.94444        48.23937         0.59274
H         38.58155        48.81647         0.61038
H         36.34001        49.46195        -0.21570
H         36.72284        53.30864         1.73225
H         35.37866        51.69882         0.35549
H         39.44247        48.25021         2.50416
H         39.32049        55.22869         1.79375
H         41.57850        47.11766         2.69056
H         41.32294        56.31939         0.85537
H         45.26125        44.95185         2.21244
H         43.29318        46.25653         2.85147
H         44.99598        58.37952        -0.25186
H         43.01717        57.29848         0.73109
H         46.95738        43.99031         1.94914
H         46.54674        59.19747        -1.39762
H         48.91449        42.72768         1.25791
H         48.56752        60.42463        -0.99840
H         52.31506        40.30014         0.21942
H         50.17312        41.45995         0.30709
H         52.43406        62.42280        -1.35877
H         50.29935        61.24914        -1.22517
H         54.04020        39.57594        -1.52330
H         54.07630        63.37282        -1.23626
H         56.23417        38.68031        -2.09132
H         56.18224        64.50536        -1.48891
H         60.19448        36.79834        -2.33268
H         57.97867        37.71650        -1.96537
H         59.85016        66.08704        -3.28067
H         57.81339        65.30151        -2.08423
H         61.82636        36.39528        -3.27997
H         62.24564        67.54848        -2.87043
H         63.96522        35.67562        -4.15628
H         63.91485        68.74304        -1.43675
H         68.13779        34.16567        -4.96487
H         65.87387        35.13108        -4.64630
H         67.84934        70.62334        -1.07061
H         65.80013        69.43545        -1.69009
H         70.24165        31.78504        -3.44191
H         68.96119        71.70285         0.51107
H         71.83567        31.32401         0.55712
H         71.06217        30.30526        -1.58890
H         71.82043        33.78626         0.85332
H         72.95718        35.52067         0.09404
H         72.96849        37.80498         0.95108
H         72.66878        39.36955         2.16661
H         72.64502        41.71235         2.92332
H         72.90902        43.80523         2.49063
H         72.89599        46.09532         3.33301
H         72.87893        48.13415         3.24880
H         72.88586        50.50744         2.62564
H         73.01579        51.91185         1.02662
H         73.11505        54.23211         0.26449
H         73.21370        56.23345         0.04801
H         73.25319        58.65951        -0.09267
H         73.25011        60.59685        -0.20327
H         73.26952        63.02404        -0.00081
H         73.23663        64.89302         0.54739
H         73.23870        67.31856         0.71956
H         73.28174        69.22893         0.57327
H         73.27620        71.69088         0.66249
H         71.11190        72.94959         0.64474
