         671
 CSIRO Nanostructure Databank - Neutral Graphene Oxide Data Set
C          6.24684        31.75745         2.16963
C          6.17917        33.10010         2.00663
C          8.48611        27.50494         0.81265
C          8.52511        28.89253         1.07590
C          7.41136        29.58690         1.53325
C          8.53073        31.78277         1.20827
C          7.54831        30.98406         2.08725
C          8.67740        33.23461         1.68113
C          7.33379        33.92534         1.68442
C          8.41909        36.06694         1.11740
C          7.25391        35.27368         1.46665
C          8.37091        37.44933         1.00836
C         10.81782        23.22165        -0.17526
C         10.76646        24.62962        -0.30440
C          9.61852        25.34635         0.03280
C         10.82447        27.57946        -0.24143
C          9.53774        26.80851         0.07320
C         11.04243        28.91008         0.40816
C          9.84486        29.60600         0.99869
C         10.92942        31.80201         0.54572
C          9.85712        31.08805         1.00285
C         10.91585        33.26120         0.52402
C          9.74107        33.97796         0.91126
C         10.79122        36.13401         0.38893
C          9.65583        35.37398         0.81106
C         10.78614        37.53508         0.47614
C          9.54457        38.22958         0.74198
C         10.70157        40.41734         0.72865
C          9.51380        39.63217         0.76029
C         10.68067        41.81711         0.79982
C         13.26163        18.98235         0.25334
C         13.26962        20.35976         0.05862
C         12.04837        21.08996        -0.03594
C         13.28933        23.16855        -0.37799
C         12.03569        22.48399        -0.22770
C         13.33572        24.60208        -0.86845
C         11.99152        25.33112        -0.78211
C         13.34747        27.52676        -0.58938
C         12.04019        26.82270        -0.69004
C         13.30460        29.01634        -0.82154
C         12.17154        29.68733        -0.09683
C         13.33099        31.90686        -0.26433
C         12.01360        31.16162        -0.29755
C         13.33108        33.28370        -0.11723
C         12.06268        33.95517         0.11639
C         13.34211        36.18801         0.04639
C         11.99587        35.40568        -0.01719
C         13.23922        37.59383         0.42461
C         12.02941        38.26989         0.46788
C         13.14254        40.41388         0.96358
C         11.99051        39.72145         0.70624
C         13.09732        41.84635         1.45483
C         11.87088        42.59327         0.98282
C         13.12770        44.74179         1.01824
C         11.90237        43.97222         0.88761
C         13.15825        46.09998         0.82222
C         15.72098        14.80488        -0.73385
C         15.69225        16.14954        -0.33684
C         14.51475        16.90139        -0.24825
C         15.77027        18.98067         0.26237
C         14.50306        18.19810         0.52973
C         15.76008        20.38629         0.05125
C         14.52578        21.08568        -0.00836
C         15.76461        23.23440        -0.33941
C         14.50284        22.49764        -0.21420
C         15.75511        24.62163        -0.35708
C         14.45138        25.35175        -0.10209
C         15.78667        27.55797        -0.30049
C         14.51511        26.84501        -0.40311
C         15.78998        29.01182        -0.28097
C         14.60180        29.70678        -0.45950
C         15.90129        31.92038        -0.23866
C         14.57169        31.17124        -0.53016
C         15.81269        33.31833         0.18692
C         14.58452        34.02741         0.06186
C         15.74485        36.09658         0.80287
C         14.57213        35.41939         0.30530
C         15.69118        37.48749         1.04485
C         14.54074        38.32813         0.51668
C         15.65513        40.44093         1.04286
C         14.39330        39.63801         1.29012
C         15.67093        41.92207         1.12075
C         14.37642        42.63012         1.26440
C         15.67184        44.69019         1.08711
C         14.36973        43.98659         1.20457
C         15.69235        46.15076         0.84475
C         14.40330        46.95843         0.88379
C         15.79940        48.74709        -0.23022
C         14.48446        47.97824        -0.26925
C         15.81487        50.04089        -0.65081
C         18.18843        10.51785        -1.66987
C         18.15736        11.92837        -1.27308
C         16.97538        12.59369        -1.12390
C         18.19309        14.75616        -0.62353
C         16.91134        13.92579        -0.41147
C         18.19973        15.99944         0.25108
C         16.92962        16.78143         0.23304
C         18.20824        18.94820         0.09210
C         16.97885        18.27095         0.24773
C         18.24904        20.34878        -0.10795
C         17.00597        21.09333        -0.17069
C         18.24474        23.18329        -0.74923
C         16.99219        22.47740        -0.41590
C         18.28057        24.68547        -0.73208
C         16.97568        25.41284        -0.58588
C         18.25323        27.53048        -0.10097
C         16.99052        26.85916        -0.26268
C         18.25918        28.93517         0.10980
C         17.04524        29.70618        -0.02813
C         18.25925        31.81194         0.52097
C         17.07721        31.10816         0.09796
C         18.21431        33.19034         0.78274
C         16.99076        33.96408         0.66552
C         18.19984        36.02789         1.41124
C         16.94925        35.33227         1.01925
C         18.20207        37.51208         1.54497
C         16.89250        38.22715         1.47065
C         18.17971        40.49160         1.21062
C         16.91309        39.72055         1.39158
C         18.13834        41.89929         1.62249
C         16.94069        42.61893         1.47868
C         18.08346        44.80491         1.90208
C         16.89878        44.01995         1.55036
C         18.16704        46.29849         1.52090
C         16.96891        46.90443         0.92175
C         18.29244        48.81058         0.19414
C         17.02781        48.13254         0.28849
C         18.33775        50.07158        -0.63730
C         17.03216        50.83039        -0.65441
C         18.18578        53.06187        -0.64283
C         16.98142        52.17634        -0.76927
C         18.29612        54.04182        -1.78576
C         20.69021         6.24846        -2.24368
C         20.67434         7.64325        -2.20990
C         19.38265         8.42020        -2.45269
C         20.62349        10.56684        -1.84960
C         19.34239         9.83034        -1.88025
C         20.64797        11.92952        -1.25945
C         19.43650        12.61269        -1.02284
C         20.70705        14.64685        -0.45757
C         19.47459        13.95629        -0.59022
C         20.76019        16.04360        -0.05230
C         19.51788        16.73353         0.51589
C         20.71940        18.94188         0.28051
C         19.47903        18.15482        -0.10342
C         20.73818        20.38343        -0.01306
C         19.51392        21.02929        -0.21439
C         20.78463        23.21895        -0.32881
C         19.54929        22.45118        -0.58981
C         20.74897        24.64307        -0.25758
C         19.53027        25.38339        -0.35587
C         20.72686        27.47633         0.14562
C         19.49309        26.77943        -0.11004
C         20.68839        28.88373         0.41240
C         19.49644        29.61472         0.37697
C         20.69271        31.72449         0.87489
C         19.50837        31.06449         0.61334
C         20.72959        33.13542         1.27660
C         19.43076        33.88423         1.25308
C         20.70972        36.02973         1.28173
C         19.50306        35.35505         1.20236
C         20.71669        37.48923         1.40449
C         19.44969        38.20736         1.00667
C         20.67435        40.44146         1.67370
C         19.48206        39.74355         1.16166
C         20.69142        41.82389         1.91824
C         19.39486        42.56318         2.01827
C         20.65689        44.85151         2.13470
C         19.36696        44.07130         2.16275
C         20.69314        46.24385         1.58153
C         19.49413        46.92069         1.28000
C         20.73303        48.96541         0.53671
C         19.48599        48.23220         0.65499
C         20.76166        50.26864         0.05575
C         19.53430        50.93700        -0.35011
C         20.72178        53.10204        -0.55264
C         19.48715        52.28862        -0.53175
C         20.68068        54.47541        -1.23505
C         19.43142        54.75116        -2.03993
C         20.24225        56.68274        -3.38133
C         19.45156        55.57191        -3.25469
C         20.59177        57.42673        -4.55502
C         23.15208         3.41372        -2.23403
C         21.93930         4.10296        -2.24816
C         23.15584         6.22680        -2.11706
C         21.91502         5.52201        -2.19479
C         23.15115         7.64442        -2.05006
C         21.90576         8.32830        -2.09946
C         23.16574        10.42721        -1.57232
C         21.89916         9.80079        -2.02931
C         23.14779        11.84162        -1.16317
C         21.87393        12.60622        -1.09517
C         23.20803        14.73719        -0.96171
C         21.91548        13.96740        -0.75334
C         23.22663        16.10779        -0.33802
C         21.96254        16.74017        -0.04808
C         23.26202        18.93612         0.05681
C         22.01229        18.18793         0.27676
C         23.23278        20.36257         0.01742
C         21.98809        21.07342        -0.04484
C         23.23386        23.22237        -0.04532
C         21.98865        22.50871        -0.13459
C         23.21690        24.62646        -0.03775
C         21.98761        25.34721        -0.06484
C         23.21855        27.42628         0.41214
C         21.96191        26.76329         0.11564
C         23.18549        28.82926         0.97116
C         21.99342        29.63909         0.45745
C         23.22660        31.75400         0.97799
C         21.94183        30.96573         1.21059
C         23.20637        33.20427         1.05027
C         22.00709        33.88881         1.21330
C         23.20766        36.03098         1.34628
C         21.99091        35.32393         1.30040
C         23.16908        37.53026         1.21054
C         21.87159        38.18106         1.60319
C         23.17511        40.36439         2.11744
C         21.85570        39.62509         1.95120
C         23.16100        41.83571         1.97418
C         21.92675        42.53801         2.08055
C         23.22025        44.76051         1.89039
C         21.93458        44.03241         2.18492
C         23.19003        46.17353         1.41737
C         21.97309        46.87575         1.34310
C         23.25259        49.02795         0.77692
C         21.94304        48.40683         1.26116
C         23.23553        50.32670         0.04931
C         22.00673        51.01207        -0.08893
C         23.20644        52.98748        -0.91510
C         22.00284        52.36711        -0.50208
C         23.18876        54.34354        -1.41903
C         22.00956        55.05776        -1.59794
C         23.14706        56.87540        -2.88031
C         22.07790        56.36946        -2.18127
C         22.99669        58.12134        -3.75219
C         21.79289        58.11765        -4.72571
C         23.04718        59.65545        -6.20149
C         21.88141        58.96986        -5.86192
C         24.36844         4.09481        -2.17459
C         25.62735         6.22355        -2.06579
C         24.40336         5.51355        -2.11768
C         25.65984         7.63873        -2.01047
C         24.41438         8.35028        -1.99902
C         25.64915        10.47450        -1.91929
C         24.44463         9.76024        -1.91423
C         25.63258        11.95506        -1.90110
C         24.39686        12.62418        -1.39270
C         25.74353        14.64981        -0.74983
C         24.44580        13.89742        -0.59048
C         25.74067        16.00182        -0.06744
C         24.43218        16.77410        -0.19186
C         25.70678        18.92335        -0.00294
C         24.46217        18.21201        -0.01203
C         25.71362        20.33977         0.00704
C         24.47541        21.07787        -0.01872
C         25.71681        23.21611         0.14813
C         24.48253        22.49962        -0.00511
C         25.73927        24.59545         0.30760
C         24.52130        25.37246        -0.14357
C         25.64437        27.43975         0.87240
C         24.41055        26.75994         0.40432
C         25.71029        28.90361         0.59930
C         24.41482        29.62423         0.58026
C         25.69066        31.80174         0.41924
C         24.39791        31.08961         0.74404
C         25.65949        33.23502         0.87329
C         24.47275        33.91905         1.03518
C         25.69038        36.09359         1.05993
C         24.47350        35.37165         1.22885
C         25.70901        37.60912         1.18477
C         24.41630        38.23862         1.65340
C         25.65164        40.34911         1.76799
C         24.42227        39.60116         1.86195
C         25.61206        41.74282         1.63448
C         24.40380        42.47702         1.73654
C         25.70454        44.61149         1.23687
C         24.46912        43.95271         1.71476
C         25.68014        46.05616         1.03890
C         24.46453        46.76591         1.08125
C         25.61282        48.64589        -0.19463
C         24.50001        48.21441         0.73813
C         25.67017        50.14334        -0.44313
C         24.44062        50.92249        -0.38403
C         25.64666        52.85407        -1.38043
C         24.43275        52.26234        -0.86844
C         25.66676        54.12764        -1.90511
C         24.47108        54.97921        -1.77691
C         25.64190        56.68803        -3.34095
C         24.45414        56.30639        -2.54985
C         25.51089        57.81610        -4.20303
C         24.29504        58.42782        -4.49483
C         24.25070        59.36762        -5.55497
C         26.87613         8.37249        -1.88168
C         28.10051        10.53125        -1.54560
C         26.89540         9.77765        -1.82392
C         28.13919        11.91884        -1.45887
C         26.94456        12.73026        -1.94626
C         28.15690        14.85866        -1.41391
C         26.86367        14.08443        -1.25649
C         28.16148        16.18749        -0.70160
C         26.96525        16.81774        -0.37313
C         28.17214        18.92444        -0.10328
C         26.94566        18.21082        -0.12066
C         28.15887        20.32784         0.14292
C         26.96562        21.02516         0.09659
C         28.24817        23.15927         0.51849
C         27.02466        22.50983        -0.09724
C         28.18756        24.59331         0.73980
C         26.96949        25.26407         0.64650
C         28.19004        27.47391         1.08886
C         26.92829        26.69813         1.00466
C         28.14299        28.88340         1.12490
C         26.95686        29.64425         0.86461
C         28.17298        31.77602         0.95955
C         26.93580        31.03845         0.86128
C         28.18591        33.18696         0.86200
C         26.93929        33.94462         1.22407
C         28.10383        35.95242         0.25100
C         26.90007        35.38647         0.75688
C         28.01980        37.58651         2.48880
C         26.90405        38.22277         1.91290
C         28.11687        40.36020         2.03065
C         26.92237        39.65033         1.85901
C         28.11638        41.86790         2.04887
C         26.91295        42.40125         1.23158
C         28.17766        44.64028         1.34567
C         26.86935        43.90355         1.20111
C         28.13634        45.98239         0.65612
C         26.93066        46.67512         0.63929
C         28.07381        48.58391        -0.56664
C         26.95359        48.15392         0.35325
C         28.03213        49.84126        -1.09502
C         26.84211        50.67562        -0.90813
C         27.80646        52.33008        -2.52195
C         26.97251        52.13479        -1.25207
C         27.90277        53.79507        -2.86776
C         26.84339        54.63751        -2.62023
C         26.79647        55.93319        -3.26085
C         29.33867        12.63484        -1.16058
C         30.60909        14.75628        -0.98270
C         29.39996        14.03771        -1.11691
C         30.64645        16.17679        -0.89464
C         29.39135        16.90352        -0.69498
C         30.60388        19.10223        -0.72970
C         29.39708        18.26719        -0.38580
C         30.68328        20.42169         0.00405
C         29.42844        20.94879         0.66175
C         30.66699        23.09516         1.23261
C         29.39545        22.45112         0.73236
C         30.62031        24.60183         1.14728
C         29.42177        25.30742         1.03121
C         30.66168        27.43841         1.29048
C         29.40894        26.74607         1.18098
C         30.67069        28.89974         1.52480
C         29.35761        29.64584         1.43680
C         30.63145        31.76052         1.04776
C         29.39746        31.08189         1.12941
C         30.62395        33.14341         0.74149
C         29.40663        33.86751         0.71771
C         30.57960        36.02412         0.34289
C         29.39143        35.30003         0.42981
C         30.54566        37.57883         2.66619
C         29.29417        38.26266         2.52113
C         30.58004        40.27387         1.85222
C         29.33394        39.64563         2.16961
C         30.57037        41.68352         1.45006
C         29.42299        42.43350         1.51035
C         30.69094        44.62685         1.07409
C         29.39454        43.81191         0.88892
C         30.58082        45.85417         0.16846
C         29.35026        46.50171         0.07065
C         30.46247        48.34816        -1.26866
C         29.17987        47.63195        -0.92219
C         30.42485        49.62618        -1.76573
C         29.19493        50.39155        -1.80839
C         29.12475        51.61298        -2.41660
C         31.85318        16.89998        -0.86112
C         33.07803        19.03932        -0.67271
C         31.89652        18.31673        -0.71112
C         33.11087        20.44964        -0.35092
C         31.86542        21.10216         0.09538
C         33.12007        23.15492         0.61980
C         31.93108        22.47731         0.61041
C         33.23394        24.55329         1.10159
C         31.86819        25.31429         1.36468
C         33.11786        27.52955         0.91405
C         31.86770        26.76328         1.27133
C         33.19201        28.88618         1.61492
C         31.91444        29.66411         1.35855
C         33.14619        31.76767         1.13131
C         31.89250        31.02955         1.18966
C         33.13838        33.16707         0.97559
C         31.90215        33.85452         0.59407
C         33.07344        36.05293         1.20088
C         31.90225        35.38709         0.59671
C         33.01693        37.27135         2.13767
C         31.74448        38.12803         2.16669
C         32.89447        40.00198         0.92158
C         31.73519        39.49065         1.74043
C         32.92708        41.49930         0.72844
C         31.82141        42.27889         0.97882
C         33.11882        44.30115         0.09117
C         31.92423        43.75353         0.84057
C         33.09167        45.69399        -0.51595
C         31.74048        46.38520        -0.51154
C         31.67890        47.59586        -1.17008
C         34.29788        21.13582        -0.33061
C         35.48431        23.36997        -0.24140
C         34.44336        22.46292         0.35386
C         35.56471        24.71945         0.13795
C         34.41030        25.35317         0.77816
C         35.60378        27.50422         0.82276
C         34.41932        26.75425         0.96652
C         35.57590        28.93152         0.83656
C         34.42524        29.63665         1.17784
C         35.59298        31.81535         1.05754
C         34.38945        31.07657         1.15456
C         35.57479        33.21616         1.03392
C         34.33501        33.92088         0.99543
C         35.55972        36.03793         1.45005
C         34.28723        35.35259         1.18982
C         35.56621        37.37466         1.77717
C         34.28556        38.09516         1.95492
C         35.45000        40.04161         0.75529
C         34.23212        39.49520         1.42036
C         35.30179        41.23736         0.00477
C         34.13188        42.04392         0.11036
C         34.11952        43.34888        -0.38554
C         36.73383        25.48396        -0.05492
C         38.09295        27.60517         0.35737
C         36.91175        26.75086         0.74563
C         38.06646        28.96447         0.31518
C         36.76443        29.73155         0.33824
C         38.06437        31.86599         0.61008
C         36.89451        31.05125         1.11098
C         38.03255        33.24004         0.63756
C         36.81858        33.95713         0.98260
C         38.06007        36.07677         1.23350
C         36.81035        35.32962         1.20937
C         38.06299        37.41277         1.46559
C         36.83104        38.20719         1.81885
C         36.66694        39.41099         0.91788
C         39.26525        29.76180         0.13587
C         40.47931        31.92175         0.03926
C         39.26669        31.13761         0.24183
C         40.47055        33.27061         0.04839
C         39.20186        34.07900         0.16684
C         39.36681        35.31559         1.07106
O         12.67056        35.89174        -1.21910
O         20.88813        57.11418        -2.20361
O          9.78384        27.55540        -1.21898
O         25.04548        29.20711        -0.69226
O         20.57837        54.35522         0.22116
O         34.32386        39.25644         2.85043
O         19.25188        43.22569         3.33818
O         24.25357        49.09374         1.87424
O         15.40079        31.71323        -1.60576
O         22.43738        39.87818         3.28153
O         11.79151        26.15354        -1.97919
O         15.72118        41.19865        -0.18589
O         24.13610        44.56347         3.02603
O         17.88791        45.85874         2.90169
O         29.94122        29.28311         2.74471
O         32.15647        34.61935        -0.64437
O         32.71291        24.76321         2.45406
O         18.95161        22.66334        -1.93195
O         17.35143        16.04704         1.44543
O         26.06787        26.99891         2.19650
O         21.36248        18.60081         1.55317
O         21.30011        10.48823        -3.18637
O         24.72449        56.25901        -1.10673
O         33.06682        44.31542         1.57784
O         10.84138        28.96427         1.88603
O         28.25044        15.24772        -2.78918
O         19.97025        33.34949         2.53384
O         18.26716        36.71311         2.74866
O         23.18675        10.79629        -0.11833
O         16.79472        39.09100         2.69626
O         21.36400        44.63987         3.39200
O         24.68469        12.62245        -2.81016
O         18.90991        40.34857        -0.07043
O         17.60533        25.22154        -1.92210
O         15.79353        45.24132        -0.32940
O         14.48973        17.84930         1.96292
H         15.33048        17.38252         2.16342
O         28.16328        37.09799        -0.41129
H         27.26659        37.51891        -0.53369
O         19.24489         8.55777        -3.88185
H         19.93604         9.19820        -4.16988
O         14.35612        47.30325        -1.52344
H         14.87274        46.46501        -1.47736
O         13.71535        24.52023        -2.25439
H         13.16176        25.17466        -2.74507
O         30.55308        36.31696         3.19073
H         31.49623        36.09790         3.43364
O         32.70906        39.36373        -0.40126
H         32.09614        39.92727        -0.92077
O         37.23122        26.28223         2.10897
H         36.45832        25.76914         2.43008
O         12.95486        41.72911         2.92965
H         12.03587        41.43136         3.10625
O         17.99222        53.80297         0.59475
H         18.83598        54.28833         0.77253
O         28.24825        44.88874         2.78615
H         29.16810        45.18738         2.99905
O         24.33552        13.52252         0.81184
H         23.73764        12.74688         0.89570
O         30.78522        22.77959         2.66887
H         31.52379        23.34389         3.01203
O         27.70772        52.77622        -0.17553
H         27.21078        52.63742         0.65773
O         23.21679        28.70703         2.40360
H         22.31692        28.50105         2.72996
O         27.20729        22.66826        -1.55670
H         26.95760        23.58790        -1.79334
O         25.35011        47.98830        -1.45658
H         26.12712        48.13348        -2.03969
O         27.97040        42.27246         3.42615
H         27.98804        43.26657         3.45373
O         29.50294        20.45346         2.04538
H         30.00862        21.12059         2.57245
O         13.12809        29.23357        -2.27674
H         13.96731        28.98838        -2.72247
O         30.59094        37.28068        -0.12623
H         31.50013        37.66138        -0.17206
O         14.37410        47.72932         2.10706
H         14.32271        47.11525         2.86858
O          9.16050        33.22078         3.06669
H          9.17541        34.14756         3.38688
O         16.77559        13.53598         0.98394
H         16.82700        14.36280         1.52845
O         37.15590        30.69693         2.49603
H         37.23472        31.52368         3.01480
O         19.62840        16.75438         1.94161
H         20.41571        17.29672         2.19232
O         11.49868        31.34391        -1.67682
H         12.03875        30.74934        -2.25729
O         25.80065        38.13399        -0.21238
H         24.91265        37.95838        -0.62245
O         14.91308        38.67726        -0.85172
H         14.71967        37.90882        -1.42979
O         27.05881        51.70158        -3.61411
H         27.60228        51.76613        -4.42696
O          7.92044        31.81182        -0.10767
H          8.56891        32.18180        -0.74429
O         19.56499        17.90754        -1.55016
H         19.39951        18.75652        -2.01544
O         33.13171        36.67986         3.48736
H         33.37251        37.41661         4.09291
O         36.47294        30.09726        -1.04221
H         36.57625        29.29702        -1.59802
O         32.93009        27.81060        -0.51521
H         33.69947        28.34319        -0.81364
O         28.72698        46.97089        -2.16596
H         29.33871        46.22233        -2.33375
O         25.78832        31.83517        -1.05203
H         25.56718        30.92118        -1.35984
O         34.96748        22.13206         1.70521
H         34.31898        21.52854         2.12765
O         18.10965        15.26976        -1.98928
H         18.76856        15.99667        -2.08579
O         25.84324        15.74494         1.37570
H         25.23017        14.99967         1.58285
O         29.29609        43.61438        -0.55004
H         28.54988        42.97395        -0.69551
O         23.30070        14.96452        -2.39463
H         22.50351        15.45376        -2.68513
O         27.15506        48.82262         1.62828
H         27.84645        48.33952         2.12656
O         22.76934        59.23956        -2.85331
H         21.98913        59.00348        -2.30310
O         38.88372        34.59926        -1.15444
H         38.69687        33.83614        -1.74019
O         18.54184        49.59786        -2.02028
H         17.73716        49.09574        -2.27325
O         24.76836        25.54270        -1.60252
H         23.97046        25.96470        -1.98812
O         33.25849        28.63992         3.04147
H         33.21809        29.50056         3.50714
O         39.82922        34.90660         2.36693
H         39.17222        34.28669         2.74500
O         22.26890        29.99178        -0.92482
H         22.48261        29.17225        -1.41831
O         21.76510        48.82299         2.64412
H         22.66127        48.82281         3.05454
O         37.03124        38.70291         3.18021
H         37.14779        37.92546         3.76483
O         19.39520        37.92757        -0.43040
H         19.09351        38.76018        -0.87361
O         30.40096        19.47887        -2.14021
H         30.17569        18.66189        -2.63577
O         14.26711        39.30281         2.68654
H         14.04087        40.12995         3.17547
O         14.11721        25.23345         1.31065
H         14.80846        25.69031         1.83368
O         26.98411        33.93044         2.70379
H         26.22778        34.47211         3.01806
O         27.21451        12.95349        -3.34766
H         27.64725        13.85758        -3.43583
O         27.90594        36.33392         2.96907
H         28.77816        36.00160         3.28335
O         30.80138        45.10130         2.43855
H         31.76762        45.14090         2.64288
O         33.57870        45.63083        -1.86619
H         32.89201        45.21771        -2.42829
O         27.16291        41.96768        -0.15959
H         26.33649        42.10068        -0.67047
O          8.06349        30.82037         3.43073
H          8.48636        31.67230         3.69658
O         23.16699        37.74604        -0.28636
H         22.39609        37.25153        -0.64558
O         21.79145        30.71944         2.63521
H         21.53683        31.56680         3.06171
H          5.33179        31.19926         2.42246
H          5.20754        33.61129         2.09958
H          7.59907        26.92996         1.12053
H          6.43502        29.07922         1.57129
H          6.28083        35.78431         1.53756
H          7.42329        37.97458         1.20234
H          9.89162        22.68207         0.07264
H          8.76897        24.78889         0.45671
H          8.54756        40.14301         0.89113
H          9.71812        42.34255         0.70017
H         12.29810        18.45402         0.31648
H         11.09633        20.54967         0.07095
H         10.98169        44.51551         0.62327
H         12.21108        46.62931         0.63284
H         14.78321        14.33488        -1.07101
H         13.56723        16.48453        -0.62203
H         13.63720        48.70633        -0.19059
H         14.87446        50.53410        -0.94231
H         17.22012        10.00325        -1.77315
H         16.02681        12.06248        -1.30131
H         16.00272        52.67828        -0.82784
H         17.41147        54.21296        -2.41836
H         19.74459         5.69237        -2.33049
H         18.50681         7.82518        -2.09062
H         18.81250        55.25645        -4.09281
H         19.87273        57.44196        -5.39076
H         23.14990         2.31548        -2.27752
H         20.99125         3.54947        -2.30671
H         23.04032        60.34387        -7.05795
H         20.98457        59.09559        -6.48722
H         25.31372         3.53329        -2.17479
H         26.57292         5.66087        -2.06107
H         26.39853        58.13031        -4.77595
H         25.19490        59.76116        -5.96033
H         27.82261         7.81660        -1.80498
H         29.02106         9.95897        -1.34520
H         28.73284        54.13882        -3.50624
H         27.67979        56.24689        -3.83872
H         30.25578        12.05408        -0.96117
H         31.56407        14.20491        -0.96625
H         31.35073        50.10317        -2.12347
H         30.01114        52.03122        -2.91997
H         32.80707        16.35245        -0.93094
H         34.04153        18.52031        -0.80039
H         33.82381        46.33023         0.04765
H         32.59940        48.01467        -1.60422
H         35.22479        20.62187        -0.63011
H         36.34001        22.90821        -0.75750
H         36.18557        41.66034        -0.49566
H         34.94790        43.71656        -1.00752
H         37.62064        24.99759        -0.48986
H         39.06420        27.08790         0.29360
H         39.01984        37.95773         1.48638
H         37.56038        39.82251         0.42417
H         40.21107        29.23779        -0.07400
H         41.42312        31.37584        -0.11420
H         41.40665        33.82649        -0.11291
H         40.14743        35.99028         0.64289
