         349
 CSIRO Nanostructure Databank - Neutral Graphene Oxide Data Set
C          1.34014         3.82381        -2.53555
C          0.15737         4.54106        -2.62100
C          1.25653         6.58173        -1.82522
C          0.11111         5.89906        -2.26690
C          1.20959         7.99347        -1.48593
C          0.09520         8.80599        -1.68870
C          1.25230        10.82896        -0.86897
C          0.09657        10.16150        -1.31135
C          1.17141        12.21567        -0.24714
C          0.09255        13.11467        -0.79944
C          1.36703        15.21216        -0.27685
C          0.15363        14.44971        -0.73335
C          1.15397        16.14276         0.97575
C         -0.03649        17.02483         0.73349
C          1.18595        19.16419         0.93471
C          0.00539        18.36992         0.65207
C          1.18635        20.53711         0.84614
C          0.00361        21.29900         0.45349
C          1.38487        23.20365        -0.23920
C          0.06721        22.56973        -0.00158
C          1.54951        24.50012        -0.97668
C          0.35934        25.27734        -1.40043
C          1.34438        27.29450        -0.34205
C          0.25461        26.58263        -1.11604
C          1.27173        28.79192        -0.50411
C          3.73798         3.72955        -1.92065
C          2.52788         4.45882        -2.08662
C          3.70225         6.46152        -1.33031
C          2.49270         5.84477        -1.73667
C          3.67936         7.85940        -0.84697
C          2.39883         8.64073        -0.91036
C          3.70538        10.73379        -0.40859
C          2.46161        10.10892        -0.76812
C          3.72155        12.17813        -0.15625
C          2.51293        12.91398        -0.20405
C          3.77189        14.94568         0.23655
C          2.55419        14.30505        -0.04603
C          3.74540        16.33841         0.74057
C          2.46026        16.94910         1.19293
C          3.66488        19.20624         1.26758
C          2.38488        18.44517         1.53076
C          3.66784        20.64480         1.70875
C          2.38037        21.34893         1.23118
C          3.75639        23.50752         0.69475
C          2.47984        22.74713         0.67448
C          3.86782        24.74492         0.14777
C          2.87102        25.26884        -0.89783
C          3.92588        27.56210        -0.76756
C          2.68455        26.73992        -0.72548
C          3.71294        29.03163        -0.48394
C          2.37018        29.57539        -0.54770
C          6.09067         3.47637        -1.10690
C          4.89751         4.33769        -1.46073
C          6.10334         6.40469        -0.69619
C          4.90134         5.73861        -1.20944
C          6.10462         7.75376        -0.42867
C          4.97779         8.61826        -0.93887
C          6.15155        10.64040        -0.00199
C          4.90742        10.01482        -0.37600
C          6.27861        12.15519        -0.10639
C          4.95004        12.85590         0.01713
C          6.32423        14.96533         0.24414
C          4.98470        14.24116         0.23971
C          6.26076        16.40023         0.71413
C          4.99217        17.13628         0.53215
C          6.20935        19.24407         1.25011
C          4.92951        18.59583         0.88689
C          6.19705        20.67629         1.44222
C          4.90127        21.38807         1.13561
C          6.21903        23.57372         1.27788
C          4.88265        22.89514         1.51271
C          6.22888        25.00396         1.02242
C          5.02186        25.60268         0.44890
C          6.08345        27.83751         0.53388
C          4.98908        26.94426         0.14682
C          6.10504        29.20046        -0.03933
C          4.81627        29.81305        -0.29696
C          8.57236         3.55199        -0.82048
C          7.36367         4.24687        -0.83924
C          8.56028         6.32945        -0.33674
C          7.33108         5.63564        -0.55572
C          8.57173         7.74266        -0.02257
C          7.23632         8.37038         0.34246
C          8.46040        10.47826         0.88468
C          7.25834         9.87261         0.26548
C          8.46947        11.95502         1.19189
C          7.34141        12.79692         0.77875
C          8.59513        14.86304         1.44580
C          7.42410        14.16274         0.91536
C          8.60353        16.25876         1.48761
C          7.40118        17.04460         1.15656
C          8.61413        19.20476         1.81603
C          7.36581        18.49022         1.36262
C          8.63797        20.69472         1.53126
C          7.37045        21.40174         1.57802
C          8.65606        23.56591         1.71229
C          7.37774        22.85223         1.48235
C          8.64360        25.06107         1.55734
C          7.40562        25.74191         1.12676
C          8.65864        27.97848         0.74504
C          7.40579        27.21910         1.00046
C          8.59001        29.23105         0.10263
C          7.30208        29.83495        -0.19910
C         11.03781         3.50170        -0.50259
C          9.81134         4.22106        -0.61975
C         11.03546         6.39527        -0.44837
C          9.77917         5.63605        -0.44561
C         11.04872         7.79882        -0.00182
C          9.75881         8.44144         0.15948
C         10.91273        10.41905         1.08135
C          9.74835         9.78818         0.69775
C         10.79609        11.70762         1.72125
C          9.75223        12.58809         1.52319
C         11.18796        14.79326         1.84967
C          9.80835        14.05301         1.81013
C         11.18647        16.30000         1.74872
C          9.85068        17.02598         1.74541
C         11.05826        19.13993         1.18487
C          9.86383        18.47029         1.41825
C         11.02028        20.60627         0.92495
C          9.81408        21.35983         1.32439
C         11.14129        23.55584         1.04585
C          9.99121        22.81079         1.72971
C         11.28413        25.05078         1.30826
C          9.94236        25.81354         1.46222
C         11.24264        27.85288         0.81680
C          9.91644        27.27627         1.13769
C         11.03409        29.77976        -0.21676
C          9.68626        29.95216        -0.50447
C         13.46268         3.46131         0.01241
C         12.27394         4.14202        -0.28697
C         13.53808         6.32960         0.02880
C         12.33327         5.61424        -0.40558
C         13.50398         7.73421         0.20770
C         12.24717         8.45566         0.24318
C         13.58322        10.59432         0.77604
C         12.22308         9.96663         0.42631
C         13.74010        12.03594         0.98107
C         12.71122        12.79470         1.66179
C         13.63776        14.92906         1.06162
C         12.46835        14.13273         1.47147
C         13.46181        16.33132         0.68385
C         12.33789        17.01436         1.12978
C         13.56287        19.18056         0.91303
C         12.28121        18.43772         1.00144
C         13.57106        20.67195         0.74855
C         12.25662        21.37028         0.59988
C         13.49184        23.50096         0.22461
C         12.27713        22.86176         0.65484
C         13.43340        24.92542        -0.13712
C         12.20643        25.70610         0.25500
C         13.57528        27.96612        -0.04970
C         12.30327        27.19292         0.30440
C         13.36284        29.24111        -0.90277
C         12.14074        29.95750        -1.06330
C         15.89371         3.42378         0.34159
C         14.71986         4.13874         0.12830
C         15.96144         6.31484         0.22951
C         14.74886         5.60329         0.11179
C         15.96692         7.72615         0.34304
C         14.73674         8.43173         0.36965
C         15.98349        10.55288         0.06112
C         14.72925         9.87740         0.46741
C         16.00202        12.07448        -0.08544
C         14.85124        12.73822         0.54620
C         16.00909        14.88796        -0.02465
C         14.92442        14.19746         0.76012
C         15.77069        16.30051        -0.47099
C         14.50226        17.09161        -0.12143
C         15.96275        19.19621         0.03330
C         14.83462        18.38358         0.65094
C         15.95856        20.63717         0.02650
C         14.77458        21.37412         0.25593
C         15.89106        23.46630        -0.43401
C         14.70910        22.77981         0.01349
C         15.86424        24.89729        -0.71361
C         14.65197        25.65619        -0.51784
C         15.77168        27.70638        -1.21684
C         14.65710        27.06943        -0.66230
C         15.75715        29.12236        -1.47818
C         14.48888        29.78300        -1.50454
C         18.44409         3.40882         0.65840
C         17.20443         4.06129         0.20363
C         18.48908         6.29679         0.43097
C         17.23614         5.59343         0.11088
C         18.50571         7.71037         0.45831
C         17.23800         8.44467         0.36760
C         18.52367        10.52673         0.01694
C         17.24474         9.81058         0.21376
C         18.54704        12.02030        -0.12770
C         17.29878        12.81693        -0.04779
C         18.66437        14.78328         0.59076
C         17.33804        14.17679         0.07526
C         18.74243        16.29023         0.57290
C         16.92071        17.14888        -0.97976
C         18.37210        19.17945        -0.46376
C         17.09135        18.51287        -0.39843
C         18.37277        20.60563        -0.51683
C         17.14353        21.32469        -0.37774
C         18.32190        23.39775        -0.96477
C         17.10444        22.73825        -0.58661
C         18.25103        24.79559        -1.39770
C         17.00970        25.53764        -1.19069
C         18.25779        27.72131        -1.54433
C         16.96069        26.94189        -1.72732
C         18.20953        29.14070        -1.61061
C         16.94397        29.80439        -1.73116
C         19.60332         4.10293         0.77109
C         20.89029         6.24086         0.77689
C         19.67333         5.54784         0.62094
C         20.92266         7.63196         0.71163
C         19.74766         8.38475         0.54637
C         21.00239        10.54884        -0.06203
C         19.79215         9.90338         0.57805
C         21.01550        11.87717        -0.33431
C         19.85721        12.71837        -0.07857
C         20.93650        14.91261        -0.53800
C         19.86969        14.10206        -0.02362
C         20.77920        16.26087        -0.72146
C         19.66759        17.00328        -0.17580
C         20.79858        19.19676        -0.49741
C         19.60158        18.46389        -0.38106
C         20.80090        20.57304        -0.69557
C         19.59983        21.31011        -0.70024
C         20.77378        23.51476        -0.97411
C         19.55936        22.73947        -0.92221
C         20.78139        24.86535        -1.14385
C         19.57238        25.59091        -1.52664
C         20.68162        27.84634        -1.36944
C         19.50521        27.07733        -1.45812
C         20.62890        29.24202        -1.41526
C         19.40661        29.88898        -1.55195
O         11.41894        20.87850        -0.49785
O         10.50740        14.35754         3.05116
O         18.58974        11.10589        -1.31104
O          6.80781        12.39828        -1.41332
O         11.88871        12.06599         2.51089
O          6.45374        27.82962         1.94715
O          2.90804         8.00615         0.36588
O         17.34574         4.76271        -1.08894
O          9.97079        26.79378         2.55477
O         18.89204        25.05239        -2.71070
O          8.12773        10.93282         2.25158
O          3.33525        16.30205         2.18409
O         15.52213        15.17751        -1.37965
O         11.81804         6.14500        -1.67450
O         13.74360        20.07064         2.08899
O          2.00479        22.50057         2.05192
O         12.24461        25.15385        -1.07103
O         15.77353        11.23474        -1.24288
O         11.35092        29.22655         1.04673
O         14.75208        14.72871         2.09858
O          1.74583        23.22557        -1.67447
O         17.57851        16.78211        -1.94087
O          8.53151        24.43695         2.89212
O         10.64125        16.85623         2.97922
O          4.92860        18.09335        -0.57296
O          8.57993        19.13487         3.28289
H          9.42997        19.48500         3.62624
O         15.34419        17.95416         1.93669
H         15.15798        18.68200         2.57374
O         18.65330        14.45871         2.02361
H         18.86767        13.50617         2.12776
O         11.98963        25.18366         2.56542
H         11.51419        25.86700         3.09738
O         16.78591        26.80559        -3.18623
H         17.52122        26.21663        -3.48748
O          4.62708        23.10704         2.90669
H          3.76084        22.68903         3.13177
O         13.91655        17.49660        -1.37619
H         13.97681        16.73576        -1.99467
O          1.72125        16.13829        -1.33801
H          1.99495        15.62078        -2.12389
O         17.90268        16.90221         1.43280
H         17.48733        16.23532         2.02272
O          2.15862        18.49486         2.98624
H          2.67199        17.74330         3.36632
O          6.30957         2.47487        -2.10892
H          6.57823         2.92348        -2.93663
O          6.70463        15.05006        -1.16311
H          6.79938        14.09290        -1.47855
O         19.78281        10.28515         1.99733
H         20.56385         9.87186         2.42235
O         10.40946        22.71018         3.12211
H         10.01513        23.48578         3.59099
O         12.04321        10.50383        -0.94126
H         12.77247        10.15864        -1.50129
O          3.71252        20.67857         3.15287
H          3.02904        20.03313         3.46819
O          3.54993        25.02321        -2.17409
H          3.35310        24.08409        -2.40779
O          7.00950         8.03528         1.75683
H          7.41676         8.74342         2.30366
O          0.90022        15.33793         2.12706
H          1.77347        15.10974         2.52014
O          1.12298        26.98276         1.08036
H          1.78573        27.48215         1.60350
O         14.14812        28.42496         1.20733
H         13.47706        29.00927         1.62593
O          5.21101         8.79814        -2.37945
H          5.92151         9.46742        -2.48939
O          4.76728        21.36484        -0.31331
H          4.91958        20.44808        -0.63442
O          4.51249        27.51873        -2.11029
H          4.37795        26.60041        -2.45346
O          0.79587        11.95776         1.14557
H          1.48838        11.38810         1.54257
H          1.36623         2.75819        -2.80427
H         -0.76166         4.04451        -2.96197
H         -0.85106         6.42494        -2.33379
H         -0.83093         8.38626        -2.10502
H         -0.85077        10.71214        -1.38852
H         -0.82546        12.64665        -1.18566
H         -0.68369        15.04789        -1.12590
H         -0.99711        16.51052         0.58293
H         -0.92464        18.90290         0.40623
H         -0.98204        20.82043         0.54387
H         -0.84677        23.10523        -0.29471
H         -0.43144        24.74843        -1.95220
H         -0.62844        27.15831        -1.43092
H          0.27070        29.24878        -0.51600
H          3.74432         2.64922        -2.12776
H          2.26362        30.67079        -0.58893
H          5.82436         2.91630        -0.16547
H          4.73137        30.91016        -0.25581
H          8.56751         2.46698        -1.00060
H          7.31497        30.84895        -0.62559
H         11.00317         2.40186        -0.51792
H          9.42504        30.57913        -1.37080
H         13.44989         2.36367         0.09085
H         12.05585        30.63826        -1.92463
H         15.84680         2.33988         0.52726
H         14.42363        30.77271        -1.98150
H         18.41401         2.33404         0.89217
H         16.92330        30.88944        -1.90824
H         20.52585         3.58002         1.06485
H         21.82079         5.67739         0.93504
H         21.88923         8.14737         0.80919
H         21.90538         9.94755        -0.24176
H         21.94169        12.34523        -0.70050
H         21.82183        14.41303        -0.95391
H         21.55401        16.81254        -1.27120
H         21.76331        18.67566        -0.42684
H         21.76527        21.08233        -0.82392
H         21.72390        23.01539        -0.74038
H         21.71347        25.42248        -0.97592
H         21.65938        27.35250        -1.29299
H         21.55937        29.82354        -1.36072
H         19.35988        30.98573        -1.60714
