         618
 CSIRO Nanostructure Databank - Neutral Graphene Oxide Data Set
C         23.10003        69.45075         2.42152
C         22.70769        70.77732         2.26215
C         21.85857        71.58851         3.05490
C         23.15733        73.74318         2.84741
C         22.01433        72.98796         3.13410
C         25.60996        65.38310         1.16764
C         25.73132        66.79423         1.67367
C         24.43093        67.50920         1.91518
C         25.52642        69.69270         1.54817
C         24.31624        68.88806         1.86541
C         25.61033        71.10995         1.80945
C         24.46483        71.92741         1.83812
C         25.68612        73.78587         2.75522
C         24.42087        73.19441         2.45111
C         27.82981        61.28921        -0.31180
C         27.76187        62.68924        -0.24691
C         26.64611        63.36691         0.26678
C         27.86327        65.54854         0.15436
C         26.65098        64.77915         0.48890
C         27.91012        66.92562         0.44987
C         26.60297        67.61795         0.72265
C         27.98252        69.70854         1.24826
C         26.71836        69.04016         1.21245
C         28.06367        71.04188         1.73876
C         26.85999        71.75076         2.04098
C         28.18470        73.76207         2.87144
C         26.87102        73.10716         2.50450
C         30.30427        57.04077        -0.63566
C         30.27335        58.45655        -0.71398
C         29.06999        59.17124        -0.53835
C         30.23789        61.28550        -0.93311
C         29.03301        60.58058        -0.62510
C         30.15600        62.73548        -1.18172
C         28.89514        63.48133        -0.78223
C         30.20239        65.63728        -0.54432
C         28.99228        64.91518        -0.41450
C         30.28810        66.94340        -0.02020
C         29.12946        67.62834         0.42376
C         30.42056        69.68366         0.97614
C         29.19355        69.01756         0.88024
C         30.50783        71.03634         1.43283
C         29.32891        71.71043         1.84232
C         30.63583        73.68482         2.40599
C         29.40954        73.04980         2.33981
C         32.62874        52.68059        -0.86165
C         32.70671        54.19339        -0.82410
C         31.52768        54.90511        -0.69564
C         32.74557        57.03547        -0.94806
C         31.50838        56.33068        -0.75294
C         32.72770        58.45892        -1.06823
C         31.49750        59.17174        -0.94952
C         32.71779        61.30085        -1.23108
C         31.47346        60.59548        -1.04511
C         32.71857        62.78402        -1.12249
C         31.42774        63.51621        -1.34184
C         32.73608        65.71380        -0.95965
C         31.43244        64.99934        -1.08529
C         32.79323        66.98365        -0.49735
C         31.61253        67.56447         0.18148
C         32.94879        69.72092         0.58453
C         31.68168        68.96106         0.71232
C         32.99050        71.04845         1.10978
C         31.77918        71.69640         1.52464
C         33.10350        73.67582         2.12452
C         31.83707        73.02945         2.00571
C         35.34898        48.72633         0.49310
C         35.29159        50.00415        -0.08224
C         34.02738        50.67584        -0.31162
C         35.16612        52.72374        -1.00530
C         33.96222        51.98895        -0.71486
C         35.16187        54.11069        -1.10031
C         33.95207        54.87748        -0.96598
C         35.19351        57.04954        -1.17652
C         33.97187        56.31345        -1.01567
C         35.17142        58.43558        -1.34404
C         33.94695        59.16842        -1.29919
C         35.21058        61.33153        -1.53391
C         33.91225        60.60582        -1.38461
C         35.28608        62.82615        -1.42055
C         33.99429        63.56457        -1.17687
C         35.25043        65.71737        -1.11733
C         33.96206        65.04374        -1.55154
C         35.28430        67.07640        -0.80348
C         33.99751        67.85835        -0.76300
C         35.35163        69.79220         0.14327
C         34.09364        69.11284         0.08047
C         35.42473        71.09102         0.70684
C         34.23268        71.72811         1.19129
C         35.59857        73.71616         2.01896
C         34.27373        73.04583         1.74795
C         37.97791        44.77506         1.91401
C         37.91277        46.12154         1.44871
C         36.67651        46.78699         1.27747
C         37.79904        48.84816         0.52768
C         36.59934        48.11563         0.76990
C         37.75256        50.10312        -0.12541
C         36.49709        50.66341        -0.43637
C         37.69267        52.70403        -1.31703
C         36.41424        51.91222        -1.26775
C         37.67354        54.05333        -1.52467
C         36.46426        54.81614        -1.13593
C         37.71760        57.00348        -1.60141
C         36.49827        56.33339        -1.14016
C         37.50578        58.32291        -2.25908
C         36.49424        59.17054        -1.47668
C         37.28252        60.98154        -2.93779
C         36.30356        60.52223        -2.12464
C         37.64145        63.17905        -2.39369
C         36.47628        63.66098        -1.74773
C         37.71492        65.66662        -1.13925
C         36.47313        65.00721        -1.25711
C         37.74119        67.06597        -0.94868
C         36.51537        67.76785        -0.73862
C         37.74726        69.88836        -0.44552
C         36.54484        69.17158        -0.36917
C         37.82228        71.19815         0.10405
C         36.68008        71.78403         0.71985
C         37.97042        73.77234         1.28083
C         36.77401        73.08911         1.30532
C         40.52797        40.69721         3.01810
C         40.50296        42.03934         2.65710
C         39.18889        42.77386         2.73994
C         40.41438        44.78917         1.73652
C         39.19323        44.13825         2.09150
C         40.38497        46.15514         1.31717
C         39.13664        46.80927         1.21087
C         40.36804        48.99237         0.71355
C         39.08035        48.25297         0.95373
C         40.26310        50.34240         0.06697
C         38.97930        50.81012        -0.47399
C         40.17923        52.66462        -1.61997
C         38.96388        52.02456        -1.15874
C         40.12191        53.96092        -2.42854
C         38.84064        54.75209        -2.11761
C         40.14622        56.95282        -2.46522
C         38.84898        56.24360        -2.15622
C         40.14104        58.45469        -2.64673
C         38.78962        59.08154        -2.56689
C         40.40198        61.56139        -2.68628
C         38.54084        60.29107        -3.11342
C         40.22505        62.91386        -2.20143
C         38.95246        63.61602        -2.07685
C         40.19884        65.64572        -1.27858
C         38.96011        64.81535        -1.11992
C         40.15920        67.06460        -1.23956
C         38.98134        67.79255        -1.05457
C         40.19023        70.13483        -1.38555
C         38.84422        69.28769        -1.32569
C         40.25337        71.32024        -0.42412
C         39.07648        71.90534         0.11161
C         40.35855        73.92703         0.68343
C         39.14339        73.20006         0.70405
C         43.03492        36.54574         4.02462
C         42.99000        37.88323         3.56812
C         41.77520        38.60681         3.48598
C         42.94802        40.58105         2.61202
C         41.74365        39.94461         3.03460
C         42.92191        41.96979         2.21639
C         41.69029        42.71204         2.26488
C         42.84553        44.73166         1.38971
C         41.67032        44.08938         1.81593
C         42.82667        46.08018         0.89052
C         41.61175        46.83120         0.94584
C         42.80784        48.82929         0.13969
C         41.62327        48.20713         0.57594
C         42.82213        50.26428        -0.24177
C         41.52680        50.98870        -0.45008
C         42.56519        52.58709        -2.27677
C         41.39555        52.04489        -1.46387
C         42.57753        54.09139        -2.01320
C         41.40908        54.78416        -2.15859
C         42.57978        57.01059        -2.13875
C         41.41301        56.25349        -2.16653
C         42.57145        58.46737        -2.21557
C         41.41139        59.22244        -2.41904
C         42.66143        61.36355        -1.86777
C         41.45641        60.69880        -2.31931
C         42.64710        62.78493        -1.63403
C         41.41423        63.52233        -1.67534
C         42.64427        65.61426        -1.12343
C         41.42039        64.93579        -1.36889
C         42.66513        67.04045        -1.01743
C         41.44309        67.77822        -1.39148
C         42.72248        69.91056        -0.90689
C         41.46989        69.27986        -1.36905
C         42.71392        71.38655        -0.78542
C         41.46025        72.02725        -0.32853
C         42.77484        74.19152         0.01774
C         41.51560        73.35632         0.17608
C         45.52143        33.80064         4.59334
C         44.30770        34.48376         4.54482
C         45.47249        36.47036         3.69331
C         44.25490        35.83064         4.09242
C         45.44888        37.82229         3.24138
C         44.21410        38.53096         3.17710
C         45.40629        40.48518         2.29310
C         44.18619        39.86376         2.68515
C         45.29684        41.75699         1.49708
C         44.11170        42.60517         1.85462
C         45.18548        44.39165         0.49713
C         44.18613        44.07957         1.60882
C         45.14271        45.82100        -0.03746
C         43.99316        46.68388         0.33269
C         45.20725        48.66612        -0.54358
C         44.00519        48.05883        -0.02198
C         45.24181        49.99128        -1.03773
C         44.03191        50.84614        -0.88635
C         45.12826        52.70787        -2.04524
C         43.90671        51.81536        -2.07600
C         45.09152        54.03939        -1.81838
C         43.81194        54.81939        -1.54413
C         45.05395        57.00107        -1.50970
C         43.90458        56.24629        -2.16969
C         45.05451        58.48489        -1.57298
C         43.91061        59.19955        -2.26656
C         45.09688        61.32017        -1.51834
C         43.88223        60.65386        -1.81621
C         45.10870        62.73624        -1.31576
C         43.87709        63.45362        -1.36417
C         45.06094        65.55226        -0.81624
C         43.88085        64.88137        -1.09885
C         45.01150        66.93428        -0.30728
C         43.80958        67.73200        -0.62072
C         44.98772        69.90098         0.14765
C         43.82357        69.16672        -0.52160
C         45.26816        71.20398        -0.64288
C         44.01165        72.07970        -0.60210
C         45.32249        74.09994        -0.08566
C         44.04772        73.35348         0.22928
C         46.71106        34.41660         4.19923
C         47.90815        36.40322         3.32158
C         46.71257        35.76006         3.74258
C         47.91163        37.73721         2.87896
C         46.66195        38.46510         2.86141
C         47.90490        40.50219         2.13609
C         46.62285        39.81018         2.41335
C         47.87494        41.88768         1.54705
C         46.57250        42.53115         1.29384
C         47.67367        44.22336        -0.12247
C         46.49844        43.71039         0.61521
C         47.60294        45.64789        -0.69472
C         46.40456        46.43343        -0.40611
C         47.71674        48.47711        -1.10779
C         46.45930        47.88491        -0.49749
C         47.56977        49.74591        -1.86128
C         46.33839        50.51842        -1.74433
C         47.67711        52.62085        -2.00963
C         46.37974        51.90596        -2.36722
C         47.62758        54.10906        -2.04283
C         46.36203        54.78041        -1.61166
C         47.63089        57.01035        -1.65678
C         46.36727        56.26629        -1.42669
C         47.58753        58.46883        -1.78804
C         46.34980        59.21570        -1.58223
C         47.61291        61.31998        -1.29556
C         46.36612        60.60235        -1.50396
C         47.58033        62.74268        -1.07623
C         46.35502        63.42420        -1.10779
C         47.59139        65.58631        -0.54475
C         46.37659        64.93023        -1.15998
C         47.57726        66.91136        -0.13768
C         46.28159        67.60255         0.11668
C         47.60418        69.80387         0.34033
C         46.28728        69.09409         0.33160
C         47.66746        71.26995         0.08465
C         46.50744        71.96047        -0.19787
C         47.78514        74.14144        -0.49873
C         46.48406        73.41593        -0.25410
C         49.10535        38.35564         2.40123
C         50.28772        40.31758         1.46264
C         49.13878        39.69731         1.97500
C         50.28027        41.64067         0.90773
C         49.06492        42.39107         0.84444
C         50.15931        44.15916        -0.44322
C         48.99619        43.59362         0.11835
C         50.10285        45.46428        -1.12752
C         48.88725        46.30495        -1.03488
C         50.18397        48.37641        -1.50346
C         48.93190        47.64709        -1.33496
C         50.17245        49.78644        -1.61734
C         48.94253        50.49070        -2.02761
C         50.11225        52.68601        -1.46691
C         48.86864        51.96612        -1.95383
C         50.16086        54.16239        -1.79670
C         48.89349        54.89440        -1.97907
C         50.09495        57.06204        -1.54725
C         48.84995        56.35959        -1.72792
C         50.12975        58.46228        -1.28710
C         48.92757        59.23797        -1.60991
C         50.07234        61.30645        -0.89061
C         48.84611        60.64543        -1.22959
C         50.06616        62.72533        -0.75558
C         48.82522        63.45293        -0.85240
C         50.05646        65.55753        -0.44193
C         48.82269        64.84707        -0.61705
C         50.04848        66.91331        -0.10688
C         48.81703        67.63758         0.08317
C         50.08230        69.74851         0.79230
C         48.85768        69.02184         0.25607
C         50.13636        71.22110         0.41407
C         48.94374        71.94594         0.18251
C         50.18588        74.04799         0.12409
C         49.00332        73.36769        -0.04018
C         51.44202        42.22052         0.35746
C         52.64219        44.17960        -0.51985
C         51.41570        43.49967        -0.24665
C         52.68180        45.53578        -0.86043
C         51.44613        46.21856        -1.30020
C         52.63488        48.40223        -1.19642
C         51.42317        47.68720        -1.34101
C         52.64578        49.82326        -1.29282
C         51.39920        50.53281        -1.51756
C         52.66709        52.65069        -1.69503
C         51.39413        51.92169        -1.68178
C         52.62207        54.17051        -1.62807
C         51.31262        54.86924        -1.60505
C         52.42476        56.92453        -0.82514
C         51.29455        56.31341        -1.39753
C         52.52147        58.37240        -0.63553
C         51.29357        59.12605        -0.84009
C         52.48973        61.26386        -0.40399
C         51.28937        60.56689        -0.72285
C         52.49635        62.66266        -0.35108
C         51.29705        63.40158        -0.52645
C         52.52323        65.54299        -0.51990
C         51.31748        64.84952        -0.51429
C         52.54819        66.99921        -0.69994
C         51.27037        67.70923        -0.27630
C         52.63340        69.79101         0.13674
C         51.43851        68.96203         0.56342
C         52.62422        71.20465         0.45791
C         51.36869        71.90569         0.49639
C         52.57258        74.04404         0.72140
C         51.40197        73.35726         0.45230
C         53.86711        46.29081        -0.76206
C         55.06628        48.42656        -0.75507
C         53.87457        47.69493        -0.92841
C         55.08344        49.83488        -0.83248
C         53.85993        50.53826        -1.11348
C         55.06749        52.67301        -0.96104
C         53.89794        51.96411        -1.22985
C         55.12412        54.17790        -1.11943
C         53.74126        54.80978        -0.94567
C         55.33088        57.06802        -0.32635
C         53.46623        56.03440        -0.37937
C         55.04054        58.42724        -0.76857
C         53.73259        59.05690        -0.43141
C         55.02896        61.30175        -0.39955
C         53.75607        60.51748        -0.02916
C         55.03669        62.66632        -0.28207
C         53.74451        63.35099         0.16715
C         55.05345        65.60508        -0.07096
C         53.74943        64.87261        -0.03293
C         55.11947        67.04517        -0.41895
C         53.86680        67.77093        -0.85948
C         55.02164        69.97545        -0.38428
C         53.79148        69.18602        -0.29902
C         55.06146        71.30964         0.22666
C         53.82912        71.91631         0.57633
C         55.07591        74.05089         0.98583
C         53.79588        73.29895         1.17547
C         56.28581        50.57096        -0.66686
C         57.54078        52.69922        -0.64647
C         56.29853        51.97123        -0.70586
C         57.60766        54.08739        -0.56079
C         56.27778        54.80589        -0.25000
C         57.60636        56.91253        -1.17110
C         56.39268        56.28819        -0.61340
C         57.56665        58.42774        -1.31999
C         56.28432        59.20948        -1.10563
C         57.55903        61.36133        -0.73307
C         56.34149        60.54783        -0.39077
C         57.54994        62.73080        -0.47649
C         56.28860        63.42986        -0.29492
C         57.53337        65.55154        -0.05541
C         56.30635        64.81942        -0.13829
C         57.54652        66.98248        -0.03203
C         56.31173        67.70926        -0.32752
C         57.55489        69.88724         0.06421
C         56.37830        69.19311        -0.43396
C         57.53555        71.26350         0.34094
C         56.28639        71.97432         0.42605
C         57.52606        74.05991         0.92040
C         56.27788        73.38664         0.77580
C         58.81008        54.81961        -0.54294
C         60.03616        56.95918        -0.61860
C         58.87726        56.22866        -0.79838
C         60.13784        58.40682        -0.88505
C         58.86400        59.18023        -1.26048
C         60.12492        61.37699        -0.67680
C         58.81135        60.67314        -1.06829
C         60.02443        62.75012        -0.16916
C         58.79153        63.44174        -0.26435
C         59.96814        65.53115         0.31747
C         58.76397        64.84021         0.00554
C         59.95546        66.94693         0.43634
C         58.75482        67.66496         0.17580
C         59.99703        69.80794         0.67333
C         58.86052        69.15222        -0.05645
C         59.96645        71.20303         0.89989
C         58.75574        71.94119         0.70956
C         59.96003        74.01510         1.30800
C         58.74240        73.35261         0.96141
C         61.26292        59.16993        -0.33127
C         62.41321        61.24637         0.27623
C         61.29529        60.55783        -0.27107
C         62.42014        62.64704         0.47700
C         61.19684        63.39704         0.28204
C         62.37224        65.48384         0.87594
C         61.18346        64.80328         0.50546
C         62.35122        66.89927         1.04030
C         61.15999        67.63182         0.80058
C         62.31077        69.71036         1.49566
C         61.14895        69.05600         0.97942
C         62.31213        71.12871         1.65368
C         61.15026        71.86782         1.36989
C         62.35194        73.96674         1.90638
C         61.14388        73.30717         1.52655
C         63.57836        63.33304         0.90525
C         64.76658        65.42912         1.45660
C         63.59002        64.73804         1.09578
C         64.78902        66.84528         1.61411
C         63.53077        67.58501         1.47908
C         64.67111        69.58088         2.43855
C         63.47766        68.94811         1.76902
C         64.64178        71.08291         2.44632
C         63.52532        71.80127         2.10487
C         64.73498        73.93517         2.50877
C         63.52428        73.26226         2.18408
C         65.97237        67.55114         1.79264
C         67.18301        69.73697         2.29269
C         65.95279        69.05943         1.75290
C         67.15740        71.03474         2.72224
C         65.85201        71.74609         3.04409
C         67.13572        73.88272         3.05359
C         65.90884        73.23965         2.81491
C         68.36138        71.76815         3.01350
C         68.32883        73.13878         3.20251
O         55.78778        69.82201        -1.61230
O         46.45156        55.36041        -0.25468
O         37.34416        62.28248        -3.44140
O         47.37419        44.44390        -1.52879
O         50.77959        45.54876        -2.41410
O         48.10507        41.67770         3.00059
O         46.88775        69.45335         1.61729
O         45.44355        66.95299         1.13659
O         31.86710        67.80036         1.62593
O         52.90301        53.49707        -2.90569
O         36.69340        55.56168         0.11414
O         56.07547        54.56222         1.08451
O         48.21133        54.60924        -3.29128
O         43.37008        72.15650        -1.91464
O         48.37204        58.95543        -2.92913
O         44.07285        50.90126        -3.15317
O         54.35827        56.56153         0.54771
O         40.94257        51.38498         0.83979
O         31.35140        64.43906        -2.45670
O         57.50896        57.54014        -2.47658
O         59.79129        58.78279        -2.28133
O         51.91099        68.50829         1.81793
O         38.36806        55.45524        -3.34885
O         39.51963        61.10942        -3.66732
O         43.75421        51.16541         0.49468
O         51.63573        67.60449        -1.69405
O         44.69505        44.60490        -0.83252
O         59.65689        61.32747        -2.05930
O         29.16160        63.13488        -2.18035
O         47.48638        48.60552         0.33272
O         48.26232        49.82894        -3.12646
O         23.32277        71.45982         1.18737
O         44.71797        57.78906        -0.32663
O         55.34622        58.90253        -2.15659
O         39.78157        48.99753         2.04916
O         41.60618        68.55244        -2.64863
O         40.18162        57.54885        -3.81480
O         33.39016        63.27329         0.10998
O         35.63090        61.95451        -0.25505
O         54.28117        65.50066         1.20799
O         35.52882        75.12106         1.74274
H         35.39061        75.23788         0.78072
O         49.84937        69.76001         2.21856
H         50.60675        69.20969         2.59189
O         40.04649        53.60700        -3.81612
H         39.80490        54.42008        -4.31245
O         26.39041        66.70925         2.97688
H         26.49683        67.62391         3.31536
O         38.12419        41.96646         2.21765
H         38.32326        41.76768         1.27994
O         65.70766        71.58903         4.51181
H         66.48919        72.01923         4.92223
O         31.68988        52.20001         0.10750
H         32.01010        52.45541         0.99678
O         38.25759        69.32264        -2.65848
H         38.65020        70.11365        -3.10723
O         45.53220        70.80353        -2.00494
H         44.81388        71.19766        -2.55983
O         40.22549        70.79489        -2.68485
H         40.73663        70.20666        -3.28814
O         53.68913        63.12104         1.61330
H         54.05464        63.93912         2.03865
O         44.28745        59.18565        -3.68594
H         43.60707        59.68725        -4.18417
O         55.47515        54.44407        -2.50026
H         54.73538        54.10858        -3.06349
O         33.78801        68.34108        -2.14379
H         34.57768        68.87060        -2.38992
O         42.25773        52.43957        -3.67522
H         42.85968        51.71242        -4.00184
O         53.63917        73.12482         2.64601
H         52.92131        72.46925         2.78588
O         47.76444        75.45000         0.07468
H         47.63688        75.35950         1.04124
O         25.87824        67.65512        -0.54070
H         26.40895        68.17157        -1.18208
O         44.99885        41.25640         0.12766
H         44.83226        42.03546        -0.44871
O         28.19254        75.14166         2.48142
H         28.11287        75.18488         1.50676
O         37.04248        59.39559        -0.15927
H         36.55210        60.14014         0.25689
O         46.44734        51.73902        -3.80139
H         46.45021        52.62712        -4.21538
O         49.95340        52.70535         0.01123
H         49.93130        51.77676         0.32918
O         44.27203        56.09235        -3.55928
H         44.24245        56.98119        -3.98241
O         44.51322        70.26781         1.46646
H         45.23739        70.02867         2.09974
O         43.67116        54.96236        -0.11563
H         44.55135        55.21296         0.25538
O         42.78019        74.77504        -1.28995
H         42.82273        74.03341        -1.93846
O         59.20362        69.29393        -1.49197
H         58.40283        69.06722        -2.01368
O         33.92489        65.11995        -2.99585
H         33.71836        66.04757        -3.24144
O         44.80350        44.71318         2.79208
H         44.22657        44.53383         3.56457
O         44.06026        72.97418         1.62800
H         44.29192        72.01116         1.70398
O         53.82030        60.44659         1.44676
H         53.70176        61.37775         1.78221
O         46.54054        65.25310        -2.61036
H         45.89426        64.70623        -3.10755
O         39.01888        64.21517         0.23342
H         38.96064        64.94497         0.88588
O         54.06579        67.90575        -2.29807
H         53.19861        68.17598        -2.67888
O         36.86999        58.02251        -3.54279
H         37.44765        57.37747        -4.01121
O         36.25815        51.42313        -2.65744
H         36.46662        52.16641        -3.26353
O         64.67678        69.12128         3.81687
H         65.03520        69.85197         4.37715
O         65.83814        69.44581         0.34348
H         66.62882        69.10952        -0.12781
O         56.54697        60.15280         1.02228
H         55.65280        60.14069         1.45972
H         23.14245        74.80091         3.15346
H         25.72559        74.79411         3.19251
H         28.26024        73.76192         3.99684
H         30.68861        74.71569         2.78572
H         33.14942        74.69356         2.53897
H         35.79290        73.63055         3.12657
H         38.02916        74.77540         1.72790
H         40.37612        74.95519         1.07360
H         42.76284        75.02924         0.75749
H         45.32626        75.20017        -0.10130
H         47.88629        74.28843        -1.61228
H         50.20363        75.14162         0.00869
H         52.57385        75.14460         0.72785
H         55.08209        75.13068         1.19917
H         57.52588        75.13826         1.14028
H         59.94527        75.10532         1.45453
H         62.35163        75.06446         1.98483
H         64.75685        75.03531         2.46725
H         67.18197        74.98149         3.05173
H         22.50749        68.79762         3.08066
H         21.09141        71.11367         3.68436
H         21.20295        73.53265         3.64372
H         24.74165        64.78088         1.47746
H         23.58311        66.92065         2.30008
H         26.95315        60.70259         0.00227
H         25.77628        62.78447         0.60695
H         29.36536        56.49101        -0.47453
H         28.14431        58.62063        -0.31579
H         32.20892        52.39254        -1.86804
H         30.58162        54.36049        -0.56217
H         34.41982        48.18379         0.72021
H         33.09611        50.14411        -0.06567
H         37.04867        44.24272         2.16363
H         35.74424        46.24379         1.49127
H         39.58994        40.20708         3.31635
H         38.95089        42.92628         3.83128
H         42.10144        36.04768         4.32701
H         40.83820        38.12245         3.79895
H         45.54285        32.75951         4.94513
H         43.37932        33.98378         4.85583
H         47.65874        33.86085         4.24066
H         48.85211        35.83813         3.33824
H         50.02727        37.75640         2.35620
H         51.22478        39.74270         1.41491
H         52.40250        41.69168         0.44449
H         53.58442        43.67050        -0.26706
H         54.80194        45.78305        -0.48153
H         56.00053        47.88670        -0.54132
H         57.22322        50.02368        -0.48609
H         58.46615        52.13109        -0.84414
H         59.74699        54.30067        -0.27871
H         60.93938        56.44786        -0.24967
H         62.11215        58.60455         0.08260
H         63.31475        60.66775         0.52749
H         64.50645        62.76506         1.06848
H         65.70410        64.86510         1.57599
H         66.93472        67.01488         1.81455
H         68.15419        69.22378         2.18714
H         69.32617        71.24113         2.97657
H         69.26969        73.67941         3.37889
