         404
 CSIRO Nanostructure Databank - Neutral Graphene Oxide Data Set
C          2.64799         2.04858         4.03395
C          2.58291         3.44219         3.95940
C          3.60664         1.34125         3.31525
C          3.48907         4.15640         3.15117
C          2.70791         6.42353         3.92628
C          2.59232         7.81195         3.70929
C          3.37760         5.60764         3.02156
C          3.23520         8.48385         2.65862
C          2.13054        10.67781         3.16330
C          2.01094        12.04846         2.96786
C          3.12457         9.93385         2.49398
C          2.92700        12.75442         2.16742
C          1.67493        14.93752         2.39115
C          1.64689        16.32125         2.29808
C          2.83045        14.20807         2.02110
C          2.76830        17.04566         1.83295
C          2.75547        18.48361         1.76273
C          4.59548         1.99623         2.53854
C          4.52692         3.43785         2.47061
C          5.46432         1.15214         1.74147
C          5.39743         4.18278         1.60044
C          3.96237         6.27531         1.85079
C          4.04965         7.73823         1.75254
C          4.98465         5.48192         1.04713
C          4.98569         8.36674         0.89156
C          4.00539        10.60672         1.61940
C          3.96857        12.02260         1.51595
C          4.93304         9.84654         0.75668
C          5.06943        12.71808         0.89294
C          3.94703        14.92080         1.53512
C          3.93282        16.33451         1.43262
C          5.15831        14.16816         1.16719
C          5.07377        17.07193         0.92338
C          3.84829        19.18689         1.33933
C          5.04929        18.51743         0.91466
C          6.71749         1.53277         1.25157
C          6.62372         3.69420         1.18776
C          7.56468         1.02908         0.23678
C          7.20943         4.10568        -0.05546
C          5.98155         6.23600         0.25179
C          6.00967         7.65460         0.20613
C          6.83846         5.41008        -0.49871
C          7.34507         8.42981         0.00848
C          6.02426        10.59795         0.01410
C          6.14172        12.04913         0.29104
C          7.20282         9.84884        -0.63762
C          7.31848        12.73341        -0.16256
C          6.28719        14.94311         0.54936
C          6.19728        16.40939         0.43110
C          7.24928        14.19626        -0.29355
C          7.36971        17.12675         0.00790
C          6.19042        19.23072         0.54378
C          7.38913        18.57798         0.14203
C          8.48820         1.89186        -0.46672
C          8.08830         3.24832        -0.75564
C          9.67750         1.39163        -1.06188
C          9.71518         4.38429        -1.76730
C          8.53559         6.56924        -1.34816
C          8.53789         7.74459        -0.65113
C          9.72368         5.77871        -1.59419
C          9.85941         8.47103        -0.49798
C          8.53417        10.61794        -0.59242
C          8.49636        12.05367        -0.55409
C          9.75838         9.95897        -0.77185
C          9.72940        12.80977        -0.70958
C          8.49161        14.99295        -0.70615
C          8.50599        16.44508        -0.42219
C          9.72905        14.21070        -0.70424
C          9.74504        17.19176        -0.65845
C          8.57948        19.29538        -0.07024
C          9.80028        18.64290        -0.37065
C         10.82519         2.13708        -1.49546
C         10.87134         3.58234        -1.65741
C         12.05368         1.44219        -1.60251
C         12.13002         4.26317        -1.70833
C         10.97882         6.43494        -1.47041
C         11.01880         7.82037        -1.20435
C         12.16985         5.68840        -1.66677
C         12.22750         8.52883        -1.36489
C         10.98180        10.66207        -1.02681
C         10.97898        12.10631        -0.94722
C         12.21908         9.97616        -1.29357
C         12.17451        12.80086        -1.15264
C         10.97818        14.93559        -0.48732
C         11.02892        16.41461        -0.69130
C         12.29023        14.19557        -0.77007
C         12.30763        17.11264        -0.27377
C         11.03323        19.29690        -0.44824
C         12.27592        18.60122        -0.57219
C         13.31118         2.09455        -1.72447
C         13.34657         3.53316        -1.75339
C         14.53350         1.38194        -1.74052
C         14.58281         4.23279        -1.82334
C         13.40293         6.39125        -1.75187
C         13.41991         7.82614        -1.68612
C         14.59038         5.64666        -1.88871
C         14.66443         8.53965        -1.81317
C         13.41474        10.67313        -1.62384
C         13.25278        12.14510        -1.97107
C         14.64447         9.98932        -1.83480
C         14.57615        12.92485        -2.02444
C         13.48774        15.01186        -1.09828
C         13.52322        16.39510        -0.83000
C         14.64885        14.34611        -1.55333
C         14.72695        17.12230        -0.97644
C         13.47864        19.26608        -0.72281
C         14.73435        18.56776        -0.83036
C         15.78493         2.05060        -1.70305
C         15.81746         3.48610        -1.74013
C         17.01624         1.35134        -1.58828
C         17.04397         4.15505        -1.55633
C         15.87314         6.35299        -2.19189
C         15.87039         7.84296        -1.93528
C         17.03048         5.64438        -1.53465
C         17.13061         8.54119        -1.98158
C         15.88685        10.67606        -2.06404
C         15.85350        12.15425        -2.20001
C         17.12613         9.99353        -2.06938
C         17.15755        12.89403        -2.13061
C         15.87684        15.03408        -1.50582
C         15.94014        16.42532        -1.22819
C         17.14057        14.27695        -1.56817
C         17.20121        17.14198        -1.20700
C         15.94316        19.24917        -0.86003
C         17.19419        18.56599        -1.00344
C         18.23983         1.99751        -1.32328
C         18.23166         3.45206        -1.24149
C         19.45904         1.21259        -1.32625
C         19.43838         4.22467        -1.04835
C         18.30450         6.41821        -1.53264
C         18.33362         7.83964        -1.92248
C         19.55224         5.61834        -1.53315
C         19.68708         8.50226        -2.08144
C         18.40725        10.66653        -2.04046
C         18.44357        12.13580        -2.10810
C         19.62948         9.99987        -1.88170
C         19.70554        12.83820        -1.82622
C         18.43839        15.00712        -1.47334
C         18.43507        16.48093        -1.37692
C         19.67148        14.30900        -1.94255
C         19.67127        17.17777        -1.32203
C         18.41281        19.25724        -0.92621
C         19.65836        18.59041        -1.05029
C         20.62120         1.60239        -0.64335
C         20.54305         3.72850        -0.38761
C         21.98183         1.29886        -0.82903
C         21.84354         4.32433        -0.37303
C         20.83423         6.36593        -1.33404
C         20.73754         7.87258        -1.14589
C         21.97475         5.65968        -0.72446
C         22.09644         8.53799        -1.27028
C         20.87620        10.68762        -1.69717
C         20.89565        12.14204        -1.70838
C         22.10505         9.97488        -1.49311
C         22.15047        12.88174        -1.59411
C         20.96362        15.07449        -1.88384
C         20.93473        16.50492        -1.46824
C         22.18086        14.26867        -1.68359
C         22.12482        17.19501        -1.26003
C         20.88452        19.27813        -0.88244
C         22.11896        18.60355        -0.95334
C         23.07345         2.05044        -0.24928
C         22.97478         3.50753         0.15563
C         24.31989         1.44496        -0.29769
C         24.26051         4.30591         0.40584
C         23.19950         6.39492        -0.54183
C         23.23165         7.80588        -0.94553
C         24.30696         5.73443        -0.02138
C         24.55980         8.43914        -1.03341
C         23.32606        10.70649        -1.36783
C         23.37481        12.12577        -1.38874
C         24.60155         9.98237        -1.26129
C         24.61410        12.80926        -1.21856
C         23.44602        15.01871        -1.70704
C         23.43095        16.52310        -1.46965
C         24.70990        14.26388        -1.46511
C         24.65439        17.19092        -0.96542
C         23.35450        19.28853        -0.78913
C         24.59741        18.61332        -0.75772
C         25.56761         2.01624         0.20687
C         25.56361         3.55779         0.55912
C         26.85041         1.41672        -0.11899
C         26.85071         4.23761         0.41441
C         25.55672         6.48191         0.20429
C         25.70053         7.82563        -0.35793
C         26.86718         5.70429         0.46927
C         26.91523         8.51305        -0.25144
C         25.79687        10.68689        -0.79347
C         25.78662        12.12015        -0.81902
C         26.94828         9.94521        -0.43785
C         26.94237        12.85522        -0.38366
C         25.92491        15.03934        -0.97596
C         25.84744        16.50461        -0.71172
C         27.00548        14.25182        -0.36271
C         27.02022        17.19690        -0.24844
C         25.82017        19.30667        -0.58772
C         27.04844        18.64876        -0.37092
C         28.05709         2.08752         0.11484
C         28.05070         3.53072         0.31975
C         29.30628         1.40816         0.06294
C         29.31385         4.23353         0.34571
C         28.13572         6.40477         0.25531
C         28.13724         7.81240         0.09040
C         29.34059         5.66929         0.33376
C         29.37342         8.51118         0.14478
C         28.14553        10.63392        -0.08199
C         28.07345        12.08259         0.14470
C         29.34892         9.94603         0.12978
C         29.36810        12.82657         0.42691
C         28.18008        14.97332         0.02707
C         28.17670        16.40529         0.09552
C         29.40300        14.28873         0.25116
C         29.38671        16.99516         0.54365
C         28.25040        19.44879        -0.47513
C         29.47381        19.10100         0.11872
C         30.53057         2.07939         0.25843
C         30.52998         3.52093         0.36377
C         31.76636         1.38551         0.31187
C         31.77727         4.21417         0.51636
C         30.58876         6.36607         0.38738
C         30.60063         7.79183         0.32235
C         31.80842         5.65206         0.53659
C         31.84935         8.47124         0.36998
C         30.58488        10.67939         0.26576
C         30.60472        12.04931         0.33370
C         31.85409         9.92302         0.15397
C         31.86127        12.80433         0.51574
C         30.62279        14.98701         0.25551
C         30.65937        16.39977         0.36912
C         31.88445        14.24271         0.14029
C         31.90843        17.15324         0.39213
C         30.81174        19.41853        -0.15416
C         31.93811        18.60583         0.26381
C         32.98579         2.05725         0.54374
C         32.96739         3.48374         0.69336
C         34.23711         1.36498         0.47385
C         34.18598         4.19948         1.07350
C         33.05013         6.35551         0.65808
C         33.06930         7.78816         0.56641
C         34.25921         5.65137         0.90034
C         34.32318         8.49282         0.73623
C         33.15876        10.64100         0.30653
C         33.15163        12.09444         0.61858
C         34.36610         9.89651         0.67358
C         34.43083        12.82531         0.49066
C         33.18691        14.98073         0.18709
C         33.14805        16.45011         0.39151
C         34.43843        14.21639         0.43035
C         34.39391        17.11310         0.52617
C         33.18582        19.24683         0.36552
C         34.40188        18.55012         0.58619
C         35.47222         2.01219         0.57769
C         35.53041         3.40932         1.04826
C         36.69304         1.39276         0.20553
C         36.76315         4.17664         0.91617
C         35.51007         6.32419         0.98772
C         35.54901         7.75311         0.94127
C         36.75491         5.60336         1.05468
C         36.77992         8.43445         1.08635
C         35.56243        10.65263         0.83721
C         35.61429        12.04007         0.64316
C         36.77477         9.90563         1.23624
C         36.92534        12.73289         0.39266
C         35.68690        14.93936         0.50753
C         35.64998        16.39953         0.56460
C         36.87253        14.22495         0.59227
C         36.84461        17.11195         0.71907
C         35.61537        19.23549         0.81617
C         36.84015        18.53781         0.92576
C         37.91229         2.08500         0.22793
C         37.96141         3.48295         0.59202
C         39.14077         1.43879        -0.13320
C         39.20103         4.16163         0.64494
C         37.98558         6.31700         1.10541
C         38.01116         7.72871         1.16215
C         39.26040         5.52866         1.28588
C         39.28721         8.45029         1.22722
C         38.08302        10.63875         1.34176
C         38.13126        12.07688         1.01507
C         39.33345         9.85602         1.28094
C         39.34751        12.75450         1.10899
C         38.16958        14.90852         0.56081
C         38.14793        16.43048         0.62850
C         39.39549        14.19372         0.96748
C         39.35837        17.10287         1.11700
C         38.05665        19.20292         1.20795
C         39.29016        18.50704         1.36004
C         40.33046         2.11960        -0.11745
C         40.39159         3.49399         0.28923
C         41.62220         4.21328         0.29507
C         40.51378         6.30053         0.95469
C         40.52138         7.71489         1.12377
C         41.66059         5.57367         0.57332
C         41.74384         8.45122         1.14928
C         40.56603        10.57981         1.30535
C         40.56965        12.01852         1.35050
C         41.77110         9.82197         1.26181
C         41.75665        12.77469         1.53168
C         40.57327        14.90734         1.21712
C         40.56227        16.37932         1.29909
C         41.75532        14.15559         1.50433
C         41.71463        17.10442         1.67350
C         40.47572        19.19024         1.73613
C         41.66678        18.48922         1.87279
O         37.27286        10.34816         2.56357
O         17.50850         6.21312        -0.28640
O         20.26151        14.83797        -3.16469
O         28.47091        12.42971         1.52236
O          8.49411         3.71885        -2.00381
O         23.54641        15.95412        -2.82448
O         26.07953         6.29523         1.56047
O         24.85777         9.02129        -2.33598
O         17.87383        14.34781        -0.27915
O         23.34154         3.95122         1.49220
O          7.25353         2.68611         1.89994
O          7.32232         5.93356        -1.68446
O         17.87576        12.72190        -3.38494
O          3.61900         5.59151         0.58418
O         11.80019        14.44803         0.60122
O         15.13928        12.71446        -3.37069
O         38.35572        15.72610        -0.65776
O          4.77363        10.26489        -0.67026
O         20.39413         2.56839         0.36704
O         32.64747        10.32924        -1.03602
O         25.76547        14.65710        -2.39334
O          7.43046        14.64041        -1.66361
O         32.58407        14.54758        -1.11192
O         10.44480        16.83237        -1.93844
O         20.45118         5.84874        -2.65664
O         25.51706         2.54941         1.57785
O         34.81164         3.67836         2.28942
O          6.36195        14.51867         1.96056
O         29.31696        18.20524         1.20867
O         32.43867        12.49502         1.85047
O         20.26240         8.11271         0.20278
H         20.89574         7.71548         0.83658
O          6.90166         9.68310        -2.03345
H          5.92112         9.71950        -2.12670
O         39.35439         5.26485         2.74277
H         38.53748         4.78653         3.00265
O         20.15301         8.30554        -3.44129
H         19.49123         8.68829        -4.05386
O          7.66734         8.68150         1.40711
H          8.64674         8.58387         1.53505
O         37.14820        12.56184        -1.07030
H         37.69835        13.31557        -1.37879
O         16.11444         6.19002        -3.63599
H         15.34711         6.57174        -4.11260
O         12.35817        17.00882         1.17841
H         13.22636        17.35172         1.47638
O         10.25209         8.38552         0.94202
H         11.05348         8.94056         1.05952
O         12.70568        12.13618        -3.32740
H         13.48103        12.11771        -3.93895
H          1.91657         1.50410         4.64715
H          1.78672         3.97565         4.49657
H          3.61516         0.24269         3.36438
H          2.24055         5.99344         4.82300
H          2.01287         8.39240         4.44004
H          1.40968        10.17085         3.81832
H          1.20698        12.58753         3.48677
H          0.78356        14.40920         2.75605
H          0.74165        16.86989         2.59599
H          1.84435        19.01375         2.07674
H          5.08803         0.14493         1.50458
H          3.82407        20.28619         1.31455
H          7.50652        -0.02670        -0.06733
H          6.18015        20.32963         0.60173
H          9.85843         0.31332        -0.91988
H          8.57645        20.38728         0.06616
H         12.04589         0.34503        -1.50636
H         11.05736        20.39569        -0.38071
H         14.51469         0.28180        -1.71043
H         13.48734        20.36412        -0.80112
H         17.00071         0.25220        -1.63967
H         15.95063        20.34418        -0.75280
H         19.46501         0.28795        -1.92331
H         18.40533        20.34076        -0.73536
H         22.25233         0.41319        -1.42460
H         20.87080        20.35844        -0.67567
H         24.38868         0.44050        -0.74449
H         23.33839        20.37776        -0.63568
H         26.86699         0.39764        -0.53371
H         25.80601        20.40648        -0.60800
H         29.30870         0.31587        -0.06886
H         28.18830        20.35615        -1.09492
H         31.77153         0.29292         0.18144
H         31.04104        20.31721        -0.74701
H         34.22218         0.29885         0.20028
H         33.22244        20.34382         0.28772
H         36.67779         0.34295        -0.12417
H         35.60824        20.33146         0.90993
H         39.11223         0.37851        -0.42374
H         38.04468        20.29289         1.35636
H         41.26352         1.61103        -0.40063
H         42.54381         3.69336        -0.00341
H         42.61636         6.09937         0.43664
H         42.69944         7.91143         1.10937
H         42.74292        10.33277         1.29394
H         42.70528        12.25808         1.73263
H         42.70218        14.67890         1.69173
H         42.67339        16.58955         1.81787
H         40.44247        20.27421         1.91489
H         42.58453        19.02256         2.15750
