         294
 CSIRO Nanostructure Databank - Neutral Graphene Oxide Data Set
C          1.30152         1.97523        -0.25362
C          1.36251         3.36364         0.14343
C          2.35004         1.36226        -0.83909
C          2.51060         4.09355         0.01733
C          1.44059         6.37124         0.71620
C          1.53614         7.63065         1.17201
C          2.61145         5.46225         0.60999
C          2.81437         8.36538         1.52990
C          1.72511        10.35997         0.28942
C          1.56106        11.72189        -0.22383
C          2.77569         9.82722         0.97969
C          2.10750        12.84048         0.31891
C          1.13884        15.03173         0.83229
C          1.41157        16.26414         1.28891
C          2.04910        14.29053        -0.11660
C          2.64075        16.96934         0.95987
C          2.82904        18.26581         1.47413
C          3.60594         2.10331        -1.21575
C          3.71054         3.48570        -0.55926
C          4.84932         1.28533        -0.93101
C          4.93155         4.09168        -0.52146
C          3.95499         6.09633         0.73420
C          4.07028         7.57891         1.03110
C          5.21982         5.36288         0.27729
C          5.25321         8.33092         0.51424
C          4.04795        10.58707         1.12836
C          4.06476        12.05949         0.91719
C          5.27860         9.82807         0.70530
C          4.96714        12.75694         0.16781
C          3.49082        14.92323        -0.23648
C          3.64684        16.36193         0.16509
C          4.82500        14.16752        -0.30557
C          4.86064        17.05263        -0.03683
C          4.00836        18.95572         1.23546
C          5.03571        18.35462         0.48336
C          6.09933         1.89830        -0.84254
C          6.11674         3.37833        -1.17289
C          7.28030         1.21717        -0.53832
C          7.40590         4.07359        -0.80907
C          6.21996         6.23640        -0.42503
C          6.04268         7.71118        -0.64477
C          7.37111         5.56252        -1.11175
C          7.37274         8.47218        -0.97682
C          6.37505        10.62307         0.07867
C          6.25868        12.10172        -0.11462
C          7.41887         9.94437        -0.74750
C          7.28146        12.77045        -1.03524
C          6.12195        14.93732        -0.51173
C          5.92548        16.41378        -0.90275
C          7.29018        14.28852        -0.76502
C          7.25211        17.19623        -0.98749
C          6.26344        19.09583         0.24110
C          7.30309        18.58158        -0.45557
C          8.48696         1.92546         0.02412
C          8.45237         3.42741        -0.24707
C          9.84461         1.37518        -0.39522
C          9.63734         4.16143         0.25717
C          8.68118         6.29223        -0.78080
C          8.71033         7.77835        -0.88646
C          9.66638         5.64803         0.13789
C          9.88974         8.52975        -0.35280
C          8.69012        10.71315        -0.73902
C          8.62375        12.07540        -0.81173
C          9.91117         9.97207        -0.45298
C          9.91751        12.84285        -0.83542
C          8.57236        14.94795        -1.30332
C          8.56063        16.48459        -1.24137
C          9.80969        14.33401        -0.63519
C          9.91046        17.22545        -1.10984
C          8.54713        19.39047        -0.74952
C          9.79633        18.58308        -0.35027
C         11.04220         2.07949        -0.17040
C         10.94674         3.45055         0.42386
C         12.30800         1.63321        -0.58333
C         12.17942         4.27013         0.53874
C         10.94198         6.39614         0.38192
C         11.02472         7.83507         0.04119
C         12.19317         5.62502         0.52207
C         12.23842         8.50604         0.43351
C         11.02041        10.67333        -0.04304
C         10.96078        12.15590         0.01950
C         12.16417         9.96547         0.54602
C         12.23896        12.89583         0.22162
C         10.95843        15.06694        -0.28465
C         11.01502        16.46029        -0.44548
C         12.27271        14.42926         0.20977
C         12.32043        17.18253        -0.23664
C         11.07663        19.33280        -0.59437
C         12.27457        18.65216        -0.61379
C         13.53151         2.52500        -0.49956
C         13.42185         3.44925         0.70960
C         14.86204         1.82905        -0.50409
C         14.68598         4.23426         0.94567
C         13.50819         6.34733         0.31114
C         13.44216         7.82936         0.63708
C         14.68335         5.58636         0.89303
C         14.67537         8.56256         0.78368
C         13.48919        10.72745         0.60891
C         13.43701        12.02142        -0.19310
C         14.70454         9.93234         0.60949
C         14.75992        12.77021        -0.38915
C         13.46920        15.00694        -0.50783
C         13.39805        16.38882        -1.07103
C         14.74051        14.26164        -0.53143
C         14.82566        17.12114        -1.19570
C         13.52438        19.30521        -0.74621
C         14.75770        18.60348        -0.74411
C         15.97457         2.21722         0.18529
C         15.91905         3.38027         1.23984
C         17.18209         1.43848        -0.13542
C         17.16778         4.28333         1.24371
C         15.85172         6.39980         1.41829
C         15.98111         7.79170         0.76068
C         17.14129         5.63681         1.19186
C         17.24054         8.54095         1.33876
C         15.95657        10.72245         0.65025
C         16.07490        11.99245        -0.18163
C         17.20604        10.04442         1.05833
C         17.23026        12.85137         0.30185
C         15.98544        15.04202        -0.30039
C         15.96999        16.38283        -0.49540
C         17.16377        14.35330         0.39117
C         17.18568        17.18747        -0.09553
C         15.94321        19.27645        -0.53193
C         17.25544        18.58210        -0.76702
C         18.37373         1.48390         0.50987
C         18.45973         3.61174         1.14192
C         19.70617         0.96799         0.13085
C         19.48784         4.12972         0.40583
C         18.49127         6.37060         1.09505
C         18.44730         7.85189         0.72642
C         19.37067         5.59146         0.02923
C         19.52327         8.49275         0.21022
C         18.54371        10.74148         0.91389
C         18.45383        12.20099         0.47613
C         19.56701        10.00180         0.03648
C         19.69207        12.87724         0.33931
C         18.48801        15.00073         0.09182
C         18.49114        16.42442        -0.38773
C         19.70769        14.30633         0.14085
C         19.69686        17.15690         0.22323
C         18.49238        19.31735        -0.31034
C         19.66783        18.65961        -0.01152
C         20.66583         1.86037        -0.17814
C         20.35500         3.30323        -0.54825
C         21.57532         4.09071        -0.98408
C         20.76423         6.28743        -0.05101
C         20.60148         7.74672        -0.57420
C         21.69385         5.42074        -0.88513
C         21.90562         8.51322        -0.67330
C         20.97805        10.61004         0.31574
C         20.96474        12.12423        -0.01684
C         22.02887         9.82733        -0.44387
C         22.15235        12.88907         0.48920
C         20.97640        15.00221         0.09637
C         21.02655        16.49319        -0.19808
C         22.14707        14.26243         0.41309
C         22.16096        17.25748         0.43685
C         20.87802        19.34086         0.28869
C         22.05820        18.61886         0.59587
O         10.06035         3.64975         1.57761
O         12.67643        10.56380         1.78516
O         14.79704        13.36421        -1.74300
O          2.93660        12.70699         1.44756
O         11.36564        12.56821         1.36048
O          7.81643        17.07991        -2.34107
O          6.94251        11.55630         1.05811
O          5.02311        10.14169         2.11177
O          4.01211        14.43043        -1.50633
O         16.41719        10.82157         2.04250
O         19.04809         6.32756         2.37420
O         13.19039         2.54176         1.85723
O         18.48604         2.30985         1.64084
O          6.91953        12.65829        -2.38412
O          9.21138         6.91550        -1.99382
O          7.11733         9.39882        -2.08052
O         15.16621        17.15863        -2.54718
O          9.89148         6.26634         1.43319
O          3.36226         5.41780         1.88647
O          5.31372         7.69563         1.82694
O         10.49064        12.71959        -2.18127
H          9.91087        13.26254        -2.77798
O         16.93748        14.67088         1.84006
H         17.59766        14.16083         2.36036
O         12.74830        17.17506         1.13864
H         11.95495        17.25754         1.70822
O          2.88836         8.46160         2.95668
H          3.79658         8.77687         3.17240
O         12.45552        14.78929         1.60989
H         11.95867        14.12169         2.14047
O          5.38063        16.40411        -2.23620
H          6.12847        16.23120        -2.85325
O         13.74601         6.30629        -1.14833
H         13.72497         5.35414        -1.42576
O         16.28724         7.57669        -0.64033
H         15.48758         7.17661        -1.06662
O         19.64419        16.96768         1.65574
H         18.79440        17.37048         1.96312
O         12.86727        16.33320        -2.41671
H         13.64762        16.59805        -2.99744
O         21.37699        10.50099         1.69151
H         21.23181         9.57839         1.98816
O         18.69828         5.65206        -1.22812
H         18.95704         6.49214        -1.69865
O          8.61249        19.74268        -2.12771
H          8.57520        18.90344        -2.64749
O         15.80328         2.75200         2.52336
H         15.15584         3.25010         3.06680
O         21.21107        16.61830        -1.65476
H         21.35319        17.56906        -1.85424
O          3.55103         2.25066        -2.66501
H          4.39705         2.69594        -2.94061
O         12.98622         3.38568         3.01973
H         12.01122         3.56119         3.00451
O         20.11749         7.70951        -1.95697
H         19.75359         8.61933        -2.12869
O          1.44897        14.36761        -1.42092
H          2.17872        14.31553        -2.08023
O          7.12403         5.73666        -2.54002
H          7.85551         6.31033        -2.89214
O         21.04268        12.20026        -1.49542
H         21.05883        13.15059        -1.74384
O          5.14954         7.85975        -1.78994
H          5.60831         8.44610        -2.44250
O          8.34420         1.67251         1.45509
H          8.89677         2.34648         1.92682
O          5.93223         4.91338         1.47693
H          5.84451         5.63529         2.14229
O         19.24034        10.22480        -1.35972
H         19.73733        11.01744        -1.68640
O         17.06209        17.42430         1.33201
H         16.82077        16.55969         1.75431
O         18.58963        16.26801        -1.81782
H         19.54817        16.25585        -2.07188
O          9.69867        18.23241         1.05893
H          9.60444        19.05949         1.57709
O         16.47594        11.50149        -1.48637
H         16.23233        12.19303        -2.14574
O         19.54635         3.16470        -1.75941
H         19.17539         4.06349        -1.95251
O         19.04850        10.79466         2.26845
H         18.26797        10.87936         2.86079
O          5.95915         3.40945        -2.62395
H          6.21285         4.31680        -2.93374
O         10.36310        17.52225        -2.45011
H         11.20045        17.01886        -2.63492
O         17.41876        18.48088        -2.19868
H         16.64433        17.93867        -2.55425
O         17.37630         8.37304         2.76666
H         18.07814         7.67023         2.91847
O         13.49233         3.42878        -1.67072
H         13.77247         2.91210        -2.45647
O         15.56151         6.51995         2.82361
H         16.11856         7.25650         3.18686
O         21.36088         6.36072         1.24712
H         20.63601         6.32832         1.94151
O          8.63831        14.57381        -2.70374
H          7.91402        13.88729        -2.87648
O         13.09042        11.51998        -1.51529
H         13.32579        12.21510        -2.17452
H          0.37718         1.41756        -0.04550
H          0.47180         3.81177         0.60566
H          2.27882         0.30903        -1.14880
H          0.44530         5.95677         0.49296
H          0.60223         8.18732         1.34221
H          0.88298         9.69349         0.04127
H          0.87021        11.84706        -1.07006
H          0.19335        14.53741         1.09877
H          0.69704        16.77821         1.94949
H          2.03119        18.72422         2.07547
H          4.75984         0.19425        -0.80633
H          4.15147        19.97028         1.63331
H          7.23394         0.12620        -0.38557
H          6.32284        20.12445         0.63014
H          9.89790         0.36770        -0.83587
H          8.52236        20.34163        -0.15313
H         12.39645         0.65009        -1.07189
H         11.04631        20.41213        -0.81184
H         14.95606         0.98044        -1.20359
H         13.53835        20.40149        -0.86326
H         17.09933         0.78432        -1.01681
H         15.92159        20.32825        -0.19948
H         19.94022        -0.10484         0.22848
H         18.50600        20.41636        -0.39821
H         21.68551         1.50114        -0.39267
H         22.33336         3.53020        -1.55570
H         22.58152         5.91321        -1.31383
H         22.74851         7.97264        -1.13216
H         22.99468        10.32405        -0.62996
H         23.05879        12.35071         0.79941
H         23.08027        14.80367         0.62620
H         23.11714        16.76101         0.65273
H         20.89308        20.44024         0.30956
H         22.93398        19.18202         0.95137
