         490
 CSIRO Nanostructure Databank - Neutral Graphene Oxide Data Set
C         38.05554        50.15364        -2.43634
C         36.90060        50.70614        -1.98485
C         38.00939        52.81989        -1.45895
C         36.87323        52.05944        -1.49950
C         40.73131        48.71090        -2.45926
C         40.65539        50.18319        -2.41222
C         39.31028        50.92049        -2.41597
C         40.47048        53.02845        -1.74165
C         39.28872        52.29767        -1.86185
C         40.47097        54.43856        -1.48306
C         42.64105        48.74111        -0.85028
C         41.68309        48.04383        -1.79034
C         42.82030        50.20566        -1.21704
C         41.80456        50.89778        -1.81908
C         42.94092        53.07234        -1.24441
C         41.83172        52.39729        -2.02317
C         42.89554        54.48599        -1.09493
C         41.62829        55.14529        -1.28431
C         45.14564        45.88505        -0.45190
C         43.96214        46.59678        -0.64166
C         45.14469        48.70460        -0.40518
C         43.95105        47.99751        -0.67365
C         45.13571        50.15046        -0.37101
C         44.02890        50.88578        -0.77819
C         45.21411        53.04418        -0.33536
C         44.04797        52.34272        -0.78927
C         45.24360        54.47203        -0.34191
C         44.05696        55.19685        -0.66990
C         45.23180        57.29380        -0.20996
C         44.09606        56.62514        -0.58524
C         47.65837        44.39454        -0.14606
C         47.62514        45.80886        -0.16682
C         46.36797        46.54782        -0.25522
C         47.59177        48.66781         0.06986
C         46.36895        47.97786        -0.18635
C         47.60622        50.09880         0.19993
C         46.29275        50.84162         0.29933
C         47.57994        53.00884         0.23957
C         46.38578        52.32200         0.01602
C         47.62406        54.43392         0.29448
C         46.43514        55.16643         0.03719
C         47.61221        57.28232         0.54227
C         46.44395        56.60250         0.11809
C         47.66887        58.72652         0.59655
C         50.09437        44.31602        -0.10082
C         48.87611        43.68149        -0.04027
C         50.15387        45.80156        -0.28851
C         48.84200        46.52232        -0.09829
C         50.04305        48.63217         0.36115
C         48.84287        47.94144         0.09999
C         49.98499        50.02639         0.91908
C         48.78320        50.77957         0.42407
C         50.10858        52.97206         0.66353
C         48.83790        52.24593         0.32339
C         50.02294        54.41691         0.96467
C         48.82527        55.12086         0.70478
C         49.93280        57.20655         1.42364
C         48.79362        56.54375         0.90220
C         49.85234        58.65562         1.72785
C         48.72506        59.38934         1.12568
C         52.65247        41.79283        -1.18545
C         51.46926        42.32105        -0.81168
C         52.64267        44.41077        -0.09154
C         51.39740        43.55427         0.05505
C         52.62901        45.74261         0.30919
C         51.31626        46.41967         0.48719
C         52.61821        48.64283         0.56063
C         51.29541        47.90331         0.62648
C         52.49768        50.06360         1.04742
C         51.30693        50.76621         0.95987
C         52.41207        52.90501         1.51704
C         51.29023        52.20865         1.12789
C         52.41204        54.35728         1.60590
C         51.18867        55.08937         1.39849
C         52.36884        57.19916         1.93665
C         51.14816        56.50444         1.64481
C         52.37360        58.61579         2.50844
C         51.07443        59.38525         2.25042
C         52.35150        61.51487         2.16258
C         51.17205        60.85546         2.13773
C         55.23407        40.45571        -1.57244
C         55.15289        41.87629        -1.28638
C         53.91938        42.46818        -0.94232
C         55.09023        44.57250        -0.37174
C         53.88613        43.80651        -0.44701
C         55.05779        45.90222         0.16631
C         53.83504        46.47457         0.51885
C         55.04786        48.54911         1.51185
C         53.69364        47.78656         1.28569
C         54.94149        50.06460         1.38491
C         53.73066        50.72996         1.35859
C         54.88567        52.94092         1.46727
C         53.65982        52.14083         1.89942
C         54.88746        54.32883         2.12843
C         53.59648        55.07465         1.82962
C         54.86456        57.25900         1.64582
C         53.57487        56.49876         1.88772
C         54.85272        58.71376         2.05596
C         53.63772        59.41184         2.21526
C         54.85992        61.55533         2.21440
C         53.63494        60.83215         2.22664
C         54.91619        62.96073         2.11164
C         57.61118        40.63808        -2.16666
C         56.39151        39.84823        -1.91615
C         57.59873        42.09757        -1.82574
C         56.34349        42.67178        -1.27450
C         57.54274        44.85209        -0.98672
C         56.30756        43.99581        -0.83247
C         57.49638        46.12553        -0.17979
C         56.31023        46.65662         0.29608
C         57.46582        48.74651         0.96951
C         56.27610        47.99500         0.82874
C         57.42604        50.11205         1.43532
C         56.18519        50.80392         1.55086
C         57.40017        52.92918         1.87400
C         56.18705        52.20367         1.69887
C         57.41094        54.35208         2.05424
C         56.14701        55.09118         1.67213
C         57.36229        57.26548         2.04706
C         56.06788        56.53653         2.26236
C         57.32029        58.63876         1.95141
C         56.08672        59.37145         2.03924
C         57.37529        61.53222         1.80690
C         56.17042        60.82861         2.41545
C         57.33282        62.97042         1.62211
C         56.10436        63.64040         1.87662
C         60.18632        37.92393        -2.63956
C         59.05159        38.75547        -2.85721
C         59.95139        40.38364        -1.16691
C         58.91363        39.92554        -2.17041
C         60.06214        41.88749        -1.09928
C         58.95400        42.80079        -1.62827
C         59.96466        44.66926        -0.29424
C         58.82100        44.06241        -0.80235
C         59.94740        45.99136         0.21714
C         58.78627        46.89522        -0.12784
C         59.91788        48.76230         1.13095
C         58.73141        48.13778         0.71804
C         59.88747        50.13639         1.54001
C         58.64265        50.82360         1.61604
C         59.86524        52.92950         2.05039
C         58.63717        52.22182         1.89139
C         59.85347        54.34640         2.18680
C         58.61435        55.04399         2.23394
C         59.89191        57.18796         2.04536
C         58.61483        56.53741         2.50464
C         59.78049        58.61075         1.66272
C         58.60617        59.40230         2.20186
C         59.77675        61.49172         1.27146
C         58.56290        60.83001         1.69372
C         59.65576        62.86920         0.66665
C         58.49309        63.66769         1.19830
C         59.71117        65.72713         0.66701
C         58.57005        65.07537         1.10147
C         62.77652        36.42507        -2.52372
C         62.28053        37.31818        -1.54725
C         61.23395        38.31695        -1.82043
C         62.43845        40.30451        -0.76843
C         61.28683        39.66504        -1.28457
C         62.40492        41.66434        -0.33595
C         61.21590        42.45171        -0.60248
C         62.49002        44.50962         0.18443
C         61.25521        43.92158        -0.40411
C         62.41146        45.83682         0.87740
C         61.12006        46.59200         0.85223
C         62.34870        48.64490         1.56806
C         61.17687        48.04943         1.12380
C         62.30079        50.02816         2.08757
C         61.08894        50.82188         1.84418
C         62.36090        52.92541         2.21137
C         61.10282        52.21317         2.06819
C         62.32667        54.37033         2.17681
C         61.11570        55.05231         2.16828
C         62.33516        57.18442         1.67022
C         61.07916        56.50216         1.98744
C         62.30604        58.66013         1.53516
C         61.01356        59.35129         1.30706
C         62.19485        61.47349         0.71773
C         60.98917        60.82765         1.19454
C         62.16056        62.88461         0.42460
C         60.96703        63.62000         0.58428
C         62.11607        65.74051         0.00540
C         60.94215        65.04147         0.40706
C         62.13184        67.11860        -0.28314
C         64.68407        35.82742        -1.12488
C         63.91013        35.64504        -2.29644
C         64.14271        36.67287        -0.15329
C         62.90637        37.31272        -0.29064
C         64.79570        40.08354         0.28651
C         63.80714        39.69122        -0.78190
C         64.77898        41.47382         0.58537
C         63.59179        42.27643         0.24750
C         64.72118        44.25800         1.34831
C         63.61308        43.63183         0.54217
C         64.84161        45.74994         1.23310
C         63.70187        46.62936         0.82767
C         64.80104        48.60762         1.89167
C         63.64192        47.97827         1.52791
C         64.91303        50.00544         2.49337
C         63.58816        50.77146         2.44690
C         64.90277        52.95725         2.36389
C         63.57157        52.22885         2.28085
C         64.83161        54.36710         1.80780
C         63.62378        55.15025         2.27253
C         64.85358        57.25365         1.48272
C         63.53041        56.52727         1.65786
C         64.73869        58.61124         0.83780
C         63.54263        59.39939         1.12673
C         64.54480        61.35715        -0.01600
C         63.39575        60.76086         0.57964
C         64.47218        62.74678        -0.37043
C         63.35838        63.51339        -0.04795
C         64.30491        65.58372        -1.19782
C         63.45585        65.02464        -0.04167
C         64.46139        67.08714        -1.06441
C         63.27088        67.78088        -0.74691
C         67.19563        33.05150        -1.20351
C         66.04530        33.80967        -1.34967
C         67.13654        35.75917        -0.35341
C         65.97459        35.14739        -0.91380
C         67.17442        37.14282         0.10646
C         66.00595        37.84808         0.45626
C         67.22217        39.89787         0.94292
C         65.94172        39.27262         0.54087
C         67.22181        41.38696         1.21930
C         65.96778        42.13717         1.01714
C         67.27055        44.22245         1.18102
C         66.02821        43.53414         1.15797
C         67.33027        45.63050         1.35065
C         66.08000        46.35085         1.67096
C         67.31169        48.59658         1.64394
C         66.09133        47.86246         1.92241
C         67.30239        50.01190         1.58613
C         66.08064        50.77280         1.89289
C         67.20667        52.86677         1.30471
C         66.06459        52.14381         1.83599
C         67.09551        54.16605         0.87686
C         65.89594        54.95782         1.15302
C         66.98240        56.98870         0.17060
C         65.92322        56.38748         0.84851
C         66.98774        58.42858        -0.11624
C         65.80754        59.21218         0.19391
C         66.92950        61.24284        -0.68457
C         65.74028        60.60709        -0.19398
C         66.93070        62.64034        -0.97795
C         65.64752        63.35211        -1.03249
C         66.92825        65.50886        -1.42563
C         65.62320        64.82065        -1.39298
C         66.97428        67.01359        -1.18799
C         65.65687        67.72269        -1.42534
C         66.83311        69.65345        -2.35443
C         65.68369        69.07195        -1.87467
C         69.64884        31.48531        -0.86955
C         69.61147        32.87276        -0.59478
C         68.38417        33.63921        -0.71955
C         69.60741        35.68440        -0.07692
C         68.36279        35.02071        -0.37016
C         69.63481        37.10440         0.05313
C         68.44088        37.83737         0.17486
C         69.71163        39.89189         0.76145
C         68.48783        39.21811         0.59365
C         69.76087        41.29849         1.35449
C         68.50092        42.10680         1.11485
C         69.76279        44.22657         0.70741
C         68.50436        43.47199         1.03607
C         69.76855        45.67485         1.14281
C         68.55412        46.34933         1.30473
C         69.82440        48.49341         1.73477
C         68.54950        47.86574         1.16806
C         69.80450        50.00875         1.52825
C         68.51827        50.70692         1.43286
C         69.63955        52.78268         0.55871
C         68.55994        52.21533         1.46181
C         69.48673        54.06752         0.00742
C         68.12147        54.71596        -0.08423
C         69.25359        56.82293        -0.79538
C         68.15865        56.22159        -0.20130
C         69.14285        58.21953        -1.37112
C         68.06492        59.05085        -0.73568
C         69.28482        61.13815        -1.39902
C         68.09485        60.47566        -0.93662
C         69.30998        62.55752        -1.54626
C         68.09698        63.31023        -1.37446
C         69.40694        65.44148        -1.58172
C         68.08725        64.76263        -1.49119
C         69.43365        66.94266        -1.82789
C         68.15263        67.67011        -1.87888
C         69.27756        69.60753        -3.04130
C         68.08735        68.95056        -2.36754
C         69.39701        71.08763        -2.76436
C         71.99771        31.38875        -0.29723
C         70.81725        30.75354        -0.72251
C         71.99293        32.74480        -0.02348
C         70.80829        33.51827        -0.15896
C         71.98194        35.62315         0.56359
C         70.80344        34.93545         0.07794
C         72.05985        36.97139         0.58865
C         70.96491        37.81006        -0.01122
C         72.15298        39.93341         0.58077
C         70.93774        39.22992         0.51090
C         72.20212        41.30763         0.80503
C         71.02952        42.06040         1.01902
C         72.23317        44.23132         0.96583
C         71.03627        43.46737         0.99497
C         72.22456        45.61147         0.94242
C         71.02025        46.37914         1.07140
C         72.17991        48.53621         0.73624
C         71.05241        47.79289         1.16605
C         72.17723        49.90118         0.58824
C         71.04524        50.73140         1.00667
C         71.91977        52.69953        -0.27857
C         70.86686        52.09179         0.42545
C         71.79155        53.98947        -0.76954
C         70.58052        54.69676        -0.63452
C         71.56734        56.76036        -1.59371
C         70.46841        56.08723        -1.06617
C         71.58277        58.16287        -1.76732
C         70.45815        58.93899        -1.54157
C         71.64760        61.05842        -2.04277
C         70.47209        60.37372        -1.65826
C         71.67667        62.43425        -2.16920
C         70.53007        63.22390        -1.91193
C         71.76467        65.35895        -2.30093
C         70.59305        64.65589        -1.96381
C         71.79785        66.73620        -2.51054
C         70.63878        67.54672        -2.43408
C         71.78119        69.62083        -3.18011
C         70.60013        68.89280        -2.84315
C         71.76966        70.99384        -3.27645
C         70.57391        71.73023        -2.96964
O         69.68806        66.38166        -0.47197
O         62.23974        44.61774        -1.27472
O         63.11948        59.31581         2.57092
O         66.12646        46.91914         3.06568
O         53.18721        47.44843         2.55876
O         50.01966        58.96440         3.18501
O         64.22203        39.04358        -1.73846
O         70.75240        50.66760         2.46311
O         40.13243        50.79119        -3.64077
O         67.19135        40.41240         2.34071
O         64.91159        37.09705         0.94771
O         57.44140        41.65488        -3.22929
O         49.78858        52.66004        -0.74883
O         65.43610        63.80986        -2.44095
O         62.71563        50.22453         3.49574
O         58.70681        59.43016         3.63304
O         51.08376        47.00549         1.78252
O         61.63488        45.83503         2.08140
O         60.15743        58.77421         0.24335
O         56.27113        55.14482         0.27608
O         69.73822        44.31891        -0.77587
H         70.52114        44.84776        -1.04271
O         63.90365        46.96157        -0.59905
H         63.52693        46.23250        -1.14502
O         68.94967        52.61298         2.81987
H         69.72853        52.05497         3.06751
O         42.13364        52.64739        -3.43102
H         41.46203        52.13872        -3.94781
O         68.98958        69.49623        -4.48730
H         69.72024        69.95068        -4.95893
O         67.59534        54.27360        -1.40040
H         68.06171        54.78890        -2.09328
O         64.34639        44.05527         2.77042
H         64.94811        44.60590         3.31894
O         53.02518        48.71080        -0.83057
H         52.49015        49.39294        -1.28806
O         62.44577        38.05799         0.75766
H         63.11559        37.99233         1.47512
O         71.28347        37.92569        -1.45246
H         70.53893        38.40202        -1.87775
O         59.04166        47.39673        -1.49338
H         58.60859        46.75422        -2.11696
O         69.81092        41.10977         2.80680
H         68.93718        40.72188         3.06292
O         54.75730        53.08211         0.04152
H         55.39049        53.81457        -0.22681
O         55.40733        48.33084         2.90936
H         54.58898        47.91428         3.31744
O         42.00996        48.73377         0.47578
H         41.14221        49.18264         0.39583
O         69.83443        48.25658         3.15694
H         70.43536        48.92241         3.55883
O         65.25621        49.81760         3.88537
H         64.41384        49.65815         4.36850
O         57.59447        45.28902        -2.40500
H         58.16341        44.63353        -2.89159
O         59.37700        43.25298        -2.96129
H         58.97406        42.61408        -3.60265
O         68.66296        57.99916        -2.75954
H         69.41052        57.60901        -3.26144
O         49.69285        49.84611         2.36895
H         48.90967        49.25862         2.44705
O         65.30840        57.53584         2.87100
H         64.70629        58.25118         3.19740
O         54.98924        57.34726         0.20693
H         55.44736        56.51013        -0.10764
O         63.51968        65.43287        -2.40355
H         63.89493        64.66359        -2.89725
O         59.39704        39.96895         0.15543
H         59.64407        39.02825         0.28981
O         58.57159        56.75416         3.96238
H         58.65606        57.76350         4.07224
O         68.61241        48.11057        -0.27688
H         67.86046        47.64600        -0.70186
O         56.41210        60.80786         3.86206
H         57.28643        60.30790         3.98879
O         50.55863        46.04185        -1.69177
H         49.86268        45.66122        -2.26861
O         53.64154        51.96982         3.34993
H         52.94200        51.31736         3.56875
O         52.44266        58.41586         3.95180
H         51.51225        58.33443         4.26754
O         45.97827        50.75739         1.74643
H         45.06640        51.09797         1.87001
O         55.02474        54.17603         3.54839
H         54.33190        53.55288         3.87113
O         67.20025        67.17541         0.25486
H         68.13712        66.89547         0.41733
O         51.39817        43.07401         1.44278
H         52.27880        42.68092         1.61980
O         55.86553        56.50304         3.67439
H         56.74507        56.39039         4.11724
O         59.28896        62.60867        -0.75054
H         59.91977        61.94179        -1.09876
O         65.15242        53.08223         3.79793
H         64.60287        53.84299         4.12319
O         63.83454        55.40638         3.71399
H         64.53007        56.11522         3.75809
O         64.15826        65.35896         1.19022
H         63.61420        65.05682         1.94732
H         38.07018        49.13252        -2.84141
H         35.96567        50.12896        -2.00365
H         37.95108        53.84697        -1.07314
H         35.91770        52.48064        -1.15883
H         40.03047        48.17870        -3.11865
H         39.51690        54.98465        -1.49467
H         41.72278        46.94858        -1.87434
H         41.56130        56.23355        -1.15307
H         45.10317        44.78829        -0.47038
H         43.02910        46.03173        -0.76844
H         45.19935        58.39025        -0.16071
H         43.20048        57.20976        -0.83487
H         46.72379        43.81921        -0.14460
H         46.83014        59.31111         0.19493
H         48.83304        42.59033         0.09018
H         48.71209        60.48668         1.17285
H         52.66017        40.85460        -1.75885
H         50.53440        41.79059        -1.04693
H         52.33591        62.61223         2.12236
H         50.23566        61.42997         2.10760
H         54.33871        39.83921        -1.41161
H         53.99220        63.55407         2.15795
H         56.44434        38.75402        -2.01158
H         56.05821        64.73458         1.78490
H         60.19759        36.92047        -3.08637
H         58.25259        38.40949        -3.52887
H         59.67961        66.82204         0.58736
H         57.70169        65.68956         1.37953
H         62.29261        36.38654        -3.50964
H         61.22627        67.71983        -0.11803
H         64.27859        34.98586        -3.09429
H         63.24500        68.87893        -0.80588
H         67.17464        31.99709        -1.50723
H         65.14635        33.34306        -1.77612
H         66.77940        70.66270        -2.78375
H         64.73753        69.62587        -1.95628
H         68.74115        30.96308        -1.19992
H         68.49639        71.66543        -2.51355
H         72.92372        30.80788        -0.18638
H         70.82120        29.67626        -0.93860
H         72.92793        33.22354         0.29616
H         72.82216        35.03229         0.95443
H         72.95928        37.46282         0.98568
H         73.08961        39.40750         0.34976
H         73.17049        41.81466         0.69341
H         73.20607        43.72329         1.02228
H         73.19138        46.13266         0.94966
H         73.05977        47.99028         0.36570
H         73.03094        50.37037         0.08234
H         72.87942        52.18314        -0.40720
H         72.65629        54.44429        -1.26849
H         72.50259        56.22256        -1.79372
H         72.54277        58.62509        -2.03352
H         72.56818        60.49883        -2.25306
H         72.61973        62.91091        -2.46569
H         72.69512        64.80344        -2.48023
H         72.74429        67.17834        -2.84992
H         72.74104        69.09182        -3.26661
H         72.69907        71.54071        -3.48519
H         70.63850        72.82261        -2.86144
