         257
 CSIRO Nanostructure Databank - Neutral Graphene Oxide Data Set
C        -11.51168         0.71104         0.25097
C        -10.43698         1.68994         0.06604
C         -8.54769         0.59729         0.41373
C         -7.28184         1.35800         0.48699
C         -6.10714         0.67347         1.13216
C         -4.82027         1.45560         1.10994
C         -3.50634         0.70046         0.99271
C         -2.21243         1.47955         0.74168
C         -0.94535         0.71402         0.43737
C          0.29330         1.49375        -0.03718
C          1.48691         0.74929        -0.55440
C          2.60494         1.43495        -1.30408
C          3.91409         0.70641        -1.42121
C          5.14692         1.47314        -0.98328
C          6.48852         0.76697        -0.89534
C          7.76593         1.50803        -0.58133
C          9.02154         0.74090        -0.17904
C         10.09267         1.50944         0.61432
C         10.91395         0.71833         1.56178
C        -10.17016         2.90547         0.60714
C         -8.80425         3.61434         0.67693
C         -7.46032         2.83967         0.42407
C         -6.20512         3.65593         0.63029
C         -4.88378         2.93944         0.74097
C         -3.65607         3.55969         0.12897
C         -2.29710         2.97117         0.44318
C         -1.10285         3.69482        -0.12464
C          0.22612         3.00262        -0.28220
C          1.37950         3.72084        -0.93792
C          2.60902         2.95988        -1.39399
C          3.91093         3.72571        -1.42794
C          5.12475         2.96590        -0.90552
C          6.42326         3.70419        -0.57679
C          7.70744         2.99971        -0.26807
C          9.07777         3.76383        -0.10778
C          9.86737         2.91859         0.86649
C         -8.81808         4.95612        -0.13142
C         -7.57359         5.77671         0.16221
C         -6.30077         5.00895        -0.01818
C         -5.05149         5.72059        -0.37865
C         -3.73268         4.98503        -0.33584
C         -2.47925         5.81269        -0.27011
C         -1.25443         5.06724        -0.73443
C         -0.05843         5.84685        -1.19528
C          1.26241         5.11841        -1.55642
C          2.52391         5.94071        -1.24587
C          3.88091         5.23711        -1.31389
C          5.14930         5.92729        -0.89808
C          6.42631         5.10111        -1.14421
C          8.19106         6.20422         0.15847
C          8.96391         5.17998         0.47378
C         -7.52621         7.11656         0.31675
C         -6.18172         7.78788         0.55500
C         -5.09392         7.22747        -0.35476
C         -3.84861         8.02333        -0.53377
C         -2.54128         7.29621        -0.41917
C         -1.30680         8.10569        -0.77485
C         -0.05052         7.26156        -0.63697
C          1.21733         7.92950        -0.22527
C          2.50372         7.32552        -0.69744
C          3.73868         7.87684        -0.02687
C          5.03138         7.12019         0.01670
C          6.29401         7.71212         0.70421
C          7.58179         7.37078        -0.02819
C         -6.16766         9.29777         0.60279
C         -5.07127        10.03714         0.37515
C         -3.79209         9.52910        -0.25210
C         -2.50018         9.94061         0.42363
C         -1.28330         9.37156         0.07589
C         -0.04445         9.95900         0.45118
C          1.22470         9.36328         0.19322
C          2.42972         9.98102         0.47697
C          3.76508         9.39525         0.06898
C          4.96546         9.88664         0.84415
C          6.10090         9.18935         1.00027
C        -11.28857        -0.63909         0.29064
C        -10.04104        -1.43026         0.37364
C         -8.77818        -0.78887         0.85282
C         -7.57563        -1.56305         1.37515
C         -6.16942        -0.84983         1.17930
C         -4.88173        -1.56336         0.80530
C         -3.55877        -0.79653         0.73771
C         -2.34423        -1.57177         0.26110
C         -1.00201        -0.81828         0.24786
C          0.18393        -1.52634        -0.34608
C          1.47555        -0.75702        -0.52570
C          2.71260        -1.49832        -0.86663
C          3.96489        -0.78495        -1.27089
C          5.22916        -1.50947        -0.97856
C          6.43180        -0.70474        -0.57085
C          7.68639        -1.45288        -0.25039
C          8.99275        -0.75904        -0.04767
C          9.91005        -1.48233         0.93420
C         10.81711        -0.61600         1.72795
C        -10.04929        -2.77511         0.15584
C         -8.84327        -3.63255         0.34326
C         -7.56362        -3.01008         0.84114
C         -6.23694        -3.66405         0.49006
C         -5.02742        -2.86281         0.06308
C         -3.85913        -3.52245        -0.62981
C         -2.47342        -2.94005        -0.37671
C         -1.28872        -3.54590        -1.13076
C          0.03776        -2.83361        -1.11578
C          1.32035        -3.60952        -1.41089
C          2.65161        -2.94629        -1.23807
C          3.85453        -3.68981        -0.69564
C          5.11846        -2.92127        -0.44973
C          6.42282        -3.64788        -0.17094
C          7.64802        -2.90491        -0.65500
C          9.06805        -3.90003         1.00802
C          9.43596        -2.75336         1.58267
C         -8.79603        -4.95916        -0.42054
C         -7.60873        -5.80050         0.00251
C         -6.29749        -5.09843         0.13157
C         -5.17472        -5.76070        -0.61154
C         -3.93407        -5.00798        -0.98338
C         -2.65905        -5.78081        -1.31768
C         -1.33480        -5.04788        -1.43218
C         -0.03174        -5.85919        -1.41607
C          1.31509        -5.12736        -1.39196
C          2.59643        -5.88654        -1.07114
C          3.94225        -5.18053        -0.88197
C          5.24980        -5.88435        -0.57038
C          6.44271        -5.12595        -0.01483
C          7.75356        -5.93652         0.06904
C          8.93159        -5.18287         0.70731
C         -7.61467        -7.14629         0.11768
C         -6.33629        -7.88991         0.29324
C         -5.09993        -7.20829        -0.23407
C         -3.96049        -8.01653        -0.74385
C         -2.68552        -7.30622        -1.15393
C         -1.38866        -8.07566        -0.95324
C         -0.06489        -7.35812        -1.13440
C          1.16380        -8.05058        -0.59486
C          2.46058        -7.28010        -0.51231
C          3.27697        -7.62412         0.69803
C          5.39398        -7.40013        -0.45501
C          6.25078        -7.85658         0.69070
C          7.41711        -7.18171         0.88565
C         -6.30294        -9.36946         0.43615
C         -5.14846       -10.05335         0.32486
C         -3.92696        -9.46200        -0.29554
C         -2.60568       -10.01363         0.04083
C         -1.42753        -9.34372        -0.17164
C         -0.20736        -9.84741         0.42495
C          1.00837        -9.22163         0.32023
C          2.21061        -9.78411         0.91481
C          3.38050        -9.06839         1.02773
C          4.62268        -9.59626         1.56522
C          5.86546        -9.03835         1.45923
O          4.75108        -1.39002        -2.34526
O          6.34031        -4.26436         1.15132
O         -5.88718        -4.68862         1.47621
O         -1.47323         3.78303         1.30008
O          7.39442         1.15912        -1.96105
O          2.10959        -3.14496        -2.55776
O         -5.46208         3.69481         1.86740
O         -2.38894         6.65838         0.89988
O          0.02804        -6.84695        -2.47566
O         -4.79440        -2.68623        -1.37199
O          1.43024         1.22359         0.82516
O         -0.08410        -1.57336         1.08247
O         -1.48038         8.47820        -2.19411
O          4.16411        -3.15400         0.62117
O          4.66045         6.01389        -2.27606
O         -2.13772        -5.34380        -2.60162
O         -5.33298        -1.51598         2.17178
O          0.44744         7.13706         0.73579
O         -5.57069         1.25343         2.34201
O         -4.26191        -9.07985        -1.68250
O          1.24800         3.71760         0.49909
O         -5.89895         5.10997        -1.42186
O         -8.38853        -3.83670         1.71634
O          6.75486        -1.06154         0.80974
O          6.81494         3.42748         0.79762
O         -1.25819         1.15722         1.78211
O         -4.75205         7.77119        -1.65523
O         -9.37577         1.07559        -0.62265
O         -2.09074        -8.06667        -2.22589
O          8.33720        -3.35107        -1.56091
O         -9.13392         0.37226         1.70800
O          2.15849        -5.70266        -2.42680
O          4.02999         7.00383         1.10201
O          2.26260        -8.30379        -1.51531
O          4.95247        -8.16327        -1.28973
O         10.22381         1.19791        -0.84170
O          4.77309         2.15050         0.25842
O          3.07160         0.93943        -2.59246
O          7.15483         5.36595        -2.08000
O         -0.86078        -2.73071        -2.26064
O          3.67374        -6.73756         1.45293
O         -4.97088        -5.34164        -1.97249
O         -5.33139        -7.30554         1.20765
O         -3.28995        -0.23886         2.05745
O          2.41001        -1.22387         0.51855
O         -2.22358        -2.81267         1.04478
O          2.53306         7.13247        -2.13517
O         -1.06877         5.39449        -2.14288
O         10.14874        -1.48830        -0.50024
O         -7.13401         2.06561        -0.79082
O          3.24544         3.32594        -2.64773
O          4.90884        -5.48165        -1.93076
O         -3.71415         3.88254        -1.29528
O         -5.73282         7.33920         1.87341
H         -6.40958         7.59074         2.53614
O         -7.76499        -1.61496         2.78687
H         -6.99397        -2.07336         3.18627
O          9.72402         3.84216        -1.37980
H         10.06610         2.94374        -1.60455
O         -8.67402         4.03916         2.05289
H         -8.71740         3.25223         2.63670
O         -8.66189        -4.71329        -1.82442
H         -9.47246        -4.27069        -2.14841
O          6.40642         7.06159         1.98485
H          5.51248         7.05926         2.39535
O         -3.71921        10.20817        -1.54286
H         -3.02889         9.75111        -2.07921
O          1.24897         4.91866        -2.97303
H          1.53922         5.75026        -3.40599
O          8.15332        -6.32847        -1.25040
H          8.38225        -5.51179        -1.75130
O         -0.26431         9.21009        -2.56131
H         -0.33853         9.22776        -3.54678
O         -8.88025         4.69381        -1.52915
H         -7.97733         4.50255        -1.86373
O          3.98947         9.84686        -1.30793
H          3.34346         9.39609        -1.89413
H         11.42180        -1.10134         2.50900
H         11.59029         1.28941         2.21546
H         10.12243         3.31787         1.85884
H          9.71325         5.38594         1.26381
H          7.95449         8.06084        -0.80430
H          6.93907         9.66752         1.53144
H          4.92909        10.93330         1.18583
H          2.42115        11.02210         0.83557
H         -0.06769        10.94303         0.94385
H         -2.49810        10.87402         1.00835
H         -5.12713        11.12855         0.51323
H         -7.07429         9.79054         0.99068
H         -8.45079         7.71364         0.36030
H         -9.73603         5.52730         0.15595
H        -10.94987         3.41604         1.19236
H        -12.55209         1.06214         0.33910
H        -12.19247        -1.26901         0.35257
H        -10.97475        -3.27194        -0.17644
H         -9.75238        -5.52186        -0.22638
H         -8.54191        -7.72525        -0.00859
H         -7.21683        -9.87327         0.78446
H         -5.12112       -11.12971         0.55349
H         -2.58470       -10.92955         0.65193
H         -0.28552       -10.76739         1.02429
H          2.16164       -10.82188         1.28081
H          4.54278       -10.54977         2.11245
H          6.68642        -9.54148         1.99598
H          8.11510        -7.49919         1.67734
H          9.84268        -5.80799         0.78589
H          9.25940        -2.66152         2.67201
