         424
 CSIRO Nanostructure Databank - Neutral Graphene Oxide Data Set
C          1.37536         3.32891        -0.13728
C          0.15510         4.00116        -0.13395
C          1.28764         6.17420        -0.11547
C          0.10262         5.39542        -0.12727
C          1.25511         7.60814        -0.08703
C          0.02724         8.35608        -0.27553
C          1.14535        10.45359         0.45653
C         -0.02481         9.70098        -0.12636
C          1.14274        11.94908         0.20476
C         -0.05732        12.66482         0.31735
C          1.12470        14.78272         0.13983
C         -0.07265        14.05623         0.24714
C          1.05432        16.29212         0.01212
C          0.12391        16.98072         0.98031
C          1.27913        19.11174         0.56439
C          0.19323        18.32151         1.13246
C          1.26887        20.54986         0.59435
C          0.12653        21.28639         1.00612
C          1.21221        23.39900         0.43813
C          0.10512        22.66375         0.94436
C          1.17060        24.86062         0.33441
C         -0.01070        25.58194         0.56287
C          1.14306        27.71096         0.30142
C         -0.02803        26.97768         0.55168
C          1.15915        29.19616         0.49712
C         -0.07350        30.00907         0.35527
C          1.20502        32.14578         0.70169
C         -0.04629        31.35226         0.37661
C          1.16363        33.57426         0.12549
C          0.00777        34.40797         0.62194
C          1.42575        36.38697         1.19675
C          0.10853        35.68186         1.01593
C          1.38822        37.85976         0.85443
C          3.83924         3.38648        -0.15062
C          2.59309         4.05374        -0.13426
C          3.76473         6.22657        -0.11806
C          2.55117         5.49244        -0.11311
C          3.72470         7.65332        -0.05374
C          2.46925         8.34415         0.01443
C          3.63644        10.50639         0.02563
C          2.44761         9.77055         0.11544
C          3.62749        11.95004        -0.06507
C          2.34944        12.66220         0.02908
C          3.65545        14.81717         0.04660
C          2.33464        14.08028         0.01848
C          3.54206        16.28681        -0.30214
C          2.40253        16.98465        -0.01252
C          3.62395        19.16150        -0.18435
C          2.40972        18.43571         0.07045
C          3.62254        20.57556        -0.17515
C          2.41235        21.27936         0.14339
C          3.50502        23.42086        -0.61204
C          2.36398        22.69800         0.05610
C          3.58458        24.88874        -0.28210
C          2.36562        25.58415         0.02839
C          3.56107        27.72410        -0.37794
C          2.33691        27.00555         0.03521
C          3.60236        29.22786        -0.29056
C          2.44654        29.94542         0.32168
C          3.64246        32.08099         0.00484
C          2.45396        31.41757         0.22700
C          3.68324        33.54020         0.03339
C          2.50524        34.27501         0.25857
C          3.73757        36.39334         0.26791
C          2.56753        35.68311         0.49548
C          3.78889        37.82836         0.38039
C          2.52161        38.52866         0.55362
C          6.29751         3.42791        -0.22192
C          5.05960         4.09619        -0.19006
C          6.22985         6.27376        -0.25970
C          5.02849         5.54686        -0.19320
C          6.19511         7.71355        -0.17198
C          4.93297         8.39384        -0.06303
C          6.09873        10.55608        -0.11267
C          4.89137         9.81580        -0.06630
C          6.08026        11.97521        -0.22581
C          4.81157        12.63979        -0.29258
C          6.08747        14.80047        -0.58113
C          4.76105        14.08211        -0.73406
C          6.09294        16.24118        -0.81366
C          4.76218        17.01523        -0.69306
C          6.06350        19.13207        -0.59009
C          4.82970        18.45634        -0.47812
C          6.07896        20.56170        -0.56027
C          4.84315        21.29285        -0.43739
C          6.02426        23.43461        -0.68477
C          4.82686        22.70249        -0.49395
C          6.05108        24.84913        -0.63653
C          4.81064        25.57468        -0.43395
C          6.06366        27.71459        -0.44091
C          4.84114        26.99987        -0.40803
C          6.07353        29.16596        -0.44531
C          4.89754        29.92047        -0.31556
C          6.09156        32.06540        -0.32275
C          4.89518        31.35784        -0.20481
C          6.13223        33.49411        -0.24472
C          4.93846        34.20806        -0.09241
C          6.21521        36.32412         0.33964
C          4.96331        35.70550        -0.27690
C          6.24751        37.82588         0.14343
C          4.99315        38.51156         0.23789
C          8.74362         3.46791        -0.42873
C          7.53216         4.13431        -0.32582
C          8.69776         6.31665        -0.39822
C          7.50267         5.59762        -0.35461
C          8.68300         7.81466        -0.55097
C          7.38186         8.45267        -0.15849
C          8.54795        10.60830         0.07149
C          7.35032         9.87164        -0.05699
C          8.54753        12.01180        -0.08118
C          7.30180        12.69438        -0.25706
C          8.54341        14.85805        -0.35334
C          7.29114        14.13519        -0.38003
C          8.54943        16.27779        -0.45757
C          7.33227        16.99943        -0.63182
C          8.55350        19.13365        -0.62943
C          7.31346        18.41022        -0.65186
C          8.54989        20.55365        -0.73234
C          7.30508        21.24417        -0.74228
C          8.59936        23.46713        -0.90157
C          7.25833        22.69035        -0.96055
C          8.52848        24.87329        -0.54622
C          7.30513        25.56036        -0.56978
C          8.54028        27.70891        -0.34211
C          7.29775        27.00126        -0.43019
C          8.52310        29.14992        -0.38416
C          7.33629        29.85235        -0.47707
C          8.60697        32.04400        -0.55132
C          7.30878        31.32755        -0.80942
C          8.61311        33.49240        -0.51524
C          7.41008        34.20680        -0.33032
C          8.67375        36.31695        -0.16935
C          7.46270        35.61403        -0.12363
C          8.70973        37.77251        -0.06914
C          7.45414        38.48182         0.02067
C         11.26938         3.50142        -0.40268
C         10.00402         4.20266        -0.79593
C         11.13868         6.35468        -0.09905
C          9.97023         5.65658        -0.39160
C         11.09118         7.79699         0.16800
C          9.88175         8.48913         0.04360
C         11.02791        10.66879         0.45194
C          9.75653         9.88903         0.59264
C         11.03634        12.01060         0.11537
C          9.78800        12.73065        -0.09365
C         11.01344        14.87321        -0.28634
C          9.78344        14.14685        -0.24984
C         11.01543        16.27450        -0.32809
C          9.78319        17.00114        -0.41537
C         11.03713        19.12651        -0.57026
C          9.78747        18.41611        -0.52860
C         11.04091        20.54766        -0.65516
C          9.80761        21.27695        -0.71714
C         11.05452        23.41055        -0.55305
C          9.82937        22.68878        -0.67763
C         11.05261        24.83266        -0.43624
C          9.77427        25.53518        -0.02147
C         11.02406        27.71400        -0.31579
C          9.77410        27.02087        -0.26614
C         11.06359        29.13686        -0.34890
C          9.79210        29.89416        -0.06407
C         11.04902        32.02994        -0.71786
C          9.77300        31.32756        -0.53262
C         11.08616        33.47938        -0.55959
C          9.86393        34.19005        -0.47358
C         11.15121        36.27999        -0.36136
C          9.89678        35.60454        -0.34063
C         11.18831        37.73333        -0.16750
C          9.92577        38.43460        -0.09611
C         13.65597         3.47978         0.15109
C         12.39901         4.17820        -0.05231
C         13.50919         6.29067         0.56034
C         12.38448         5.63729         0.11354
C         13.48296         7.73898         0.80472
C         12.25668         8.48101         0.57916
C         13.55353        10.64271         0.49650
C         12.27012         9.95475         0.91367
C         13.50958        12.05936         0.21020
C         12.29788        12.71767         0.02056
C         13.52844        14.91169        -0.08155
C         12.30842        14.12856        -0.51100
C         13.49396        16.29385        -0.07483
C         12.26321        17.00817        -0.31393
C         13.56290        19.08598        -0.82035
C         12.26264        18.39727        -0.48077
C         13.52625        20.58005        -0.63717
C         12.29463        21.26601        -0.64255
C         13.51792        23.41660        -0.63503
C         12.28917        22.69792        -0.60367
C         13.50686        24.84454        -0.64010
C         12.25994        25.54669        -0.50792
C         13.47208        27.70713        -0.51798
C         12.25580        26.99552        -0.42681
C         13.51866        29.11838        -0.41924
C         12.28318        29.81316        -0.38021
C         13.55323        32.01817        -0.23708
C         12.34216        31.27385        -0.58224
C         13.56900        33.38755        -0.36367
C         12.33077        34.13537        -0.55105
C         13.62370        36.29604        -0.72632
C         12.33713        35.55287        -0.51230
C         13.66559        37.54177         0.16975
C         12.39821        38.35814         0.02557
C         16.07126         3.45099         0.66404
C         14.80357         4.12698         0.50009
C         16.00646         6.34917         0.41650
C         14.79167         5.57879         0.92153
C         15.99844         7.71200         0.35060
C         14.80195         8.49982         0.74811
C         16.00095        10.65251         0.22248
C         14.75579         9.95500         0.46069
C         15.99560        12.06917         0.17254
C         14.76410        12.79067         0.14633
C         15.99914        14.93935         0.29964
C         14.75975        14.20066         0.12066
C         15.98347        16.32947         0.38775
C         14.67844        17.08736         0.42100
C         15.99495        19.16129        -0.22101
C         14.78771        18.45259        -0.21644
C         16.00046        20.58157        -0.51972
C         14.75897        21.28535        -0.62221
C         15.98931        23.43255        -0.71916
C         14.75734        22.71461        -0.66854
C         15.97383        24.86437        -0.77472
C         14.73997        25.54462        -0.75349
C         16.04556        27.79420        -0.61707
C         14.71316        27.00689        -0.82932
C         15.95313        29.14248        -0.03736
C         14.75933        29.81751        -0.13535
C         16.03665        31.95749         0.26213
C         14.69574        31.24703         0.37407
C         16.06753        33.36220        -0.00277
C         14.83686        34.11363        -0.27511
C         16.15193        36.18510        -0.81727
C         14.86623        35.46025        -0.52541
C         16.13702        37.64458        -0.35716
C         14.94438        38.29690        -0.03362
C         18.51139         3.54024         0.90206
C         17.24553         4.14655         0.56686
C         18.50701         6.30053         0.20250
C         17.22233         5.54101        -0.02467
C         18.52750         7.71537        -0.15505
C         17.17706         8.48210        -0.12468
C         18.46006        10.62961        -0.06816
C         17.22003         9.93792         0.04840
C         18.48309        12.05822         0.02872
C         17.24050        12.78927         0.15040
C         18.50853        14.87530         0.52383
C         17.22935        14.18149         0.31816
C         18.51795        16.38907         0.67408
C         17.20064        17.15701         0.76016
C         18.46137        19.20120        -0.05981
C         17.23694        18.51592         0.09123
C         18.46725        20.60578        -0.37379
C         17.22461        21.30071        -0.52908
C         18.46029        23.45226        -0.70463
C         17.22204        22.72558        -0.66889
C         18.44522        24.86649        -0.75022
C         17.22503        25.59213        -0.72926
C         18.43218        27.62373         0.04414
C         17.25481        26.99379        -0.49145
C         18.35211        28.87984         0.71393
C         17.07157        29.71537         0.82565
C         18.38218        32.01468         0.91510
C         17.19572        31.24987         0.61564
C         18.45954        33.40084         0.54413
C         17.29543        34.06295         0.04655
C         18.56519        36.15808        -0.23738
C         17.37758        35.46211        -0.31290
C         18.61674        37.58552        -0.76357
C         17.35900        38.31374        -0.36317
C         19.66457         4.26166         0.94034
C         20.88568         6.44032         0.71717
C         19.67136         5.67831         0.62192
C         20.91825         7.78742         0.43428
C         19.75129         8.49381         0.02558
C         20.92202        10.65164        -0.23330
C         19.71011         9.90649        -0.12253
C         20.92509        12.02227        -0.22827
C         19.71993        12.76295        -0.03528
C         20.93099        14.94040         0.10181
C         19.75402        14.18459         0.14953
C         20.92866        16.33910         0.16008
C         19.75549        17.09630         0.30571
C         20.92394        19.24274        -0.09314
C         19.72075        18.50694         0.07289
C         20.92002        20.59653        -0.32882
C         19.69935        21.32593        -0.45972
C         20.92928        23.50214        -0.67600
C         19.70003        22.74212        -0.63256
C         20.95375        24.85293        -0.75625
C         19.70928        25.67922        -0.89345
C         20.75647        27.33497         0.74916
C         19.65859        26.89924         0.01013
C         20.64105        28.47224         1.55368
C         19.45407        29.21156         1.51325
C         20.60124        32.26520         1.97327
C         19.45705        31.52398         1.70998
C         20.72754        33.55593         1.45121
C         19.66177        34.15212         0.76622
C         20.87309        36.32203         0.54600
C         19.74125        35.54935         0.34271
C         20.90379        37.71952         0.22450
C         19.84881        38.33895        -0.35395
O         11.79947        31.59348        -1.92640
O         18.65177        15.53239         1.86092
O         15.42935        27.62685        -1.93625
O         14.23353         8.15136         2.06984
O          2.01528        29.51210         1.67699
O          3.29135        28.57805        -1.57296
O         17.75886         8.02392        -1.38779
O         19.34460        30.30217         2.39455
O          5.30429        16.62330        -2.01419
O          7.94518        23.13285        -2.17346
O          4.11175        14.81588         1.43724
H          3.36072        15.08502         2.00703
O         13.71143        18.87889        -2.28896
H         13.01408        19.41280        -2.72723
O         13.69225        37.04315         1.55044
H         13.70291        37.81873         2.14939
O          4.41645        14.06579        -2.14114
H          4.58676        14.97634        -2.49044
O          0.49106        16.52718        -1.32263
H          0.45122        17.49796        -1.45746
O         14.36722        17.37992         1.83597
H         15.23711        17.59320         2.26699
O          9.79434        30.01209         1.41341
H          8.92534        30.37757         1.68573
O         14.39464        31.17439         1.80381
H         15.08809        30.59175         2.20884
O          6.11935        36.09430         1.77788
H          6.92398        36.46785         2.19469
O         18.63260        37.54215        -2.22740
H         17.81857        37.04452        -2.50682
O         13.60606        36.77941        -2.11307
H         13.18538        36.08610        -2.66491
O          9.72307        25.37520         1.45772
H         10.43942        25.93098         1.83346
O         12.41094        13.98270        -1.98040
H         12.44840        14.88662        -2.36055
O          5.03264        35.96059        -1.71018
H          4.31308        35.45609        -2.14328
O         16.61712        29.55073         2.21727
H         17.36385        29.85667         2.78437
O         14.89688         5.54662         2.37852
H         14.74457         6.47285         2.68971
O          0.99866        10.33211         1.92267
H          1.03323         9.37516         2.13642
O         17.03297        17.48848         2.19346
H         17.43871        16.73040         2.68252
O         16.24583        36.23413        -2.28670
H         15.38781        36.62783        -2.59118
O          0.94926        33.39113        -1.30778
H          0.87618        34.27744        -1.71920
O         19.71625        26.21403        -2.26586
H         19.62958        25.45322        -2.87806
O          8.78474         8.04796        -2.02060
H          7.93552         7.75925        -2.41871
O          1.30994        32.23060         2.14195
H          1.47902        31.31364         2.46490
O         12.23816        10.01916         2.40032
H         12.98225         9.43881         2.70447
O          3.18336        23.37623        -2.06088
H          3.91809        23.82158        -2.53557
O          7.17429        31.36814        -2.28006
H          7.96015        30.92177        -2.66230
O          1.71653        36.32131         2.63201
H          2.63667        36.63597         2.75901
O         17.08072         5.35841        -1.46994
H         17.23235         6.24657        -1.87745
O          9.51225         9.72028         2.04332
H         10.39872         9.73893         2.48701
O         10.00660         4.20536        -2.28179
H          9.25605         4.76920        -2.56769
H          1.40234         2.22993        -0.14664
H         -0.78198         3.42664        -0.13576
H         -0.87867         5.88860        -0.11596
H         -0.87223         7.81873        -0.60975
H         -0.97076        10.23060        -0.31046
H         -1.00418        12.12893         0.47148
H         -1.03133        14.59068         0.30014
H         -0.68571        16.41091         1.45953
H         -0.54869        18.83037         1.76474
H         -0.76601        20.75790         1.36728
H         -0.79904        23.19111         1.27660
H         -0.95001        25.05328         0.77250
H         -0.96897        27.50138         0.76917
H         -1.01846        29.48681         0.14196
H         -0.98596        31.90390         0.22317
H         -0.99148        33.94907         0.55388
H         -0.79648        36.23168         1.32023
H          0.44167        38.40419         0.99295
H          3.85779         2.28631        -0.14942
H          2.50911        39.62075         0.41441
H          6.31544         2.32786        -0.21074
H          4.99120        39.61293         0.23779
H          8.75561         2.36735        -0.45230
H          7.47253        39.58177        -0.03560
H         11.30428         2.40732        -0.52006
H          9.94383        39.53203        -0.01040
H         13.68462         2.40264        -0.07506
H         12.43064        39.43527         0.25512
H         16.08068         2.37606         0.90621
H         14.98057        39.36547         0.23692
H         18.51390         2.47811         1.19012
H         17.40060        39.38564        -0.11397
H         20.61234         3.78844         1.23387
H         21.80230         5.92895         1.04371
H         21.86306         8.33392         0.56048
H         21.87350        10.11614        -0.35257
H         21.88155        12.55025        -0.33378
H         21.89466        14.44485        -0.07652
H         21.88604        16.84802        -0.01322
H         21.89171        18.73444         0.00592
H         21.88394        21.11374        -0.41196
H         21.88826        22.96748        -0.63602
H         21.92185        25.36928        -0.83375
H         21.69725        26.76824         0.74207
H         21.46305        28.79330         2.20555
H         21.39152        31.83586         2.60202
H         21.65234        34.11287         1.64724
H         21.77487        35.88915         0.99869
H         21.81244        38.28793         0.47195
H         19.89506        39.40939        -0.60277
