         404
 CSIRO Nanostructure Databank - Neutral Graphene Oxide Data Set
C          1.15384         3.43226         0.35444
C          0.00118         4.15289         0.44117
C          1.05867         6.24967        -0.31487
C         -0.04974         5.54586         0.10875
C          1.08083         7.71719        -0.34647
C         -0.11881         8.45129        -0.18242
C          1.09379        10.56492        -0.18209
C         -0.11459         9.83168        -0.13388
C          1.10545        12.00923        -0.07404
C         -0.10145        12.75004        -0.03258
C          1.10866        14.83897         0.25716
C         -0.10456        14.12246         0.12281
C          1.09794        16.27382         0.53776
C          0.00125        16.94861         1.03802
C          1.18151        19.11042         1.14179
C          0.03516        18.34821         1.29498
C          1.23032        20.57495         1.59206
C         -0.04607        21.34803         1.42724
C          1.17482        23.43281         0.97168
C         -0.03501        22.69272         1.21345
C          1.19324        24.87876         0.87992
C         -0.00475        25.63297         0.99624
C          1.19736        27.71267         0.58989
C          0.01355        27.01357         0.89561
C          1.16315        29.14741         0.34403
C          0.05257        29.96622         0.66759
C          0.99004        31.88402        -0.49742
C          0.00377        31.32188         0.33548
C          1.12270        33.38487        -0.67863
C         -0.04142        34.16736        -1.14575
C          1.27031        36.25673        -1.27140
C          0.03715        35.50308        -1.38781
C          1.29472        37.67671        -1.40843
C          3.65195         3.40370        -0.10389
C          2.33334         4.00729        -0.29526
C          3.57153         6.22534        -0.85856
C          2.27294         5.49202        -0.67358
C          3.55273         7.73531        -0.79348
C          2.28798         8.43831        -0.48229
C          3.57195        10.57378        -0.33721
C          2.31638         9.85333        -0.33757
C          3.59552        11.97213        -0.11333
C          2.34377        12.70595         0.00657
C          3.59592        14.82324         0.42109
C          2.32328        14.11724         0.17234
C          3.65371        16.29118         0.19869
C          2.31885        17.05370         0.29086
C          3.63874        19.09140         0.76072
C          2.38969        18.45821         0.71302
C          3.65592        20.54292         1.01811
C          2.39048        21.30981         0.97039
C          3.57029        23.41993         0.18930
C          2.37742        22.67688         0.77203
C          3.69948        24.81916         0.83291
C          2.41173        25.58866         0.68204
C          3.64809        27.66618         0.07249
C          2.42508        26.98760         0.44058
C          3.57523        29.02295        -0.62232
C          2.23870        29.72739        -0.36606
C          3.91596        32.09063        -1.11909
C          2.00400        30.99972        -0.89576
C          3.78136        33.45086        -0.86583
C          2.46015        34.12012        -0.77609
C          3.70450        36.28823        -0.92228
C          2.48029        35.57518        -1.05387
C          3.70701        37.71758        -1.00635
C          2.46844        38.38382        -1.27059
C          6.09146         3.44632        -0.20258
C          4.84659         4.12006        -0.29718
C          6.05478         6.26885        -0.56229
C          4.84437         5.53622        -0.57757
C          6.04319         7.73289        -0.64724
C          4.83008         8.44778        -0.61381
C          6.04561        10.57829        -0.54870
C          4.81317         9.86423        -0.49259
C          6.06747        11.99222        -0.31691
C          4.85773        12.64719        -0.04164
C          6.14664        14.83393         0.16401
C          4.90031        14.06730         0.34483
C          6.14343        16.23693         0.35036
C          4.91432        16.99297         0.45219
C          6.13969        19.12589         0.67451
C          4.88649        18.39617         0.59537
C          6.19613        20.51151         0.71199
C          4.93925        21.27706         0.88964
C          6.17088        23.43039         0.39839
C          4.89752        22.66962         0.34692
C          6.15828        24.91067         0.35679
C          4.94403        25.57646         0.39868
C          6.14559        27.68804         0.01380
C          4.89566        26.99692         0.16172
C          6.13105        29.15894         0.05137
C          4.81383        29.89212        -0.23474
C          6.15659        32.02904        -0.27094
C          4.97698        31.32403        -0.59625
C          6.19091        33.47157        -0.40250
C          4.96775        34.17872        -0.60300
C          6.15169        36.32432        -0.53690
C          4.94169        35.60687        -0.65547
C          6.13199        37.76101        -0.55091
C          4.90845        38.42884        -0.78579
C          8.54981         3.45260        -0.32672
C          7.30976         4.14452        -0.32417
C          8.56304         6.28929        -0.38890
C          7.28167         5.57435        -0.41171
C          8.56873         7.77401        -0.60279
C          7.26143         8.46805        -0.73055
C          8.51781        10.62827        -0.94972
C          7.25627         9.86569        -0.76415
C          8.55025        12.04727        -0.53642
C          7.33781        12.71004        -0.29244
C          8.59332        14.83885        -0.14918
C          7.35439        14.13021        -0.07737
C          8.57946        16.25183         0.03145
C          7.39017        16.92888         0.30768
C          8.68706        19.13903         0.61274
C          7.39950        18.36267         0.67994
C          8.65908        20.60955         0.58720
C          7.43538        21.24831         0.71315
C          8.69205        23.48514         0.70161
C          7.40528        22.72251         0.84667
C          8.64860        24.91533         0.32119
C          7.41609        25.59670         0.21760
C          8.64092        27.73829        -0.00515
C          7.38993        27.02206         0.05249
C          8.65141        29.16273        -0.13963
C          7.39976        29.89390        -0.10667
C          8.61532        32.04672        -0.34012
C          7.37497        31.28277        -0.12421
C          8.63767        33.47969         0.13598
C          7.39062        34.21463        -0.27765
C          8.63621        36.36471        -0.38627
C          7.39784        35.62880        -0.39283
C          8.59201        37.80079        -0.20832
C          7.34147        38.45055        -0.27831
C         11.01562         3.41361        -0.50858
C          9.79163         4.12294        -0.49199
C         11.04289         6.25025        -0.73445
C          9.81485         5.54569        -0.58861
C         11.06477         7.68466        -0.86612
C          9.79080         8.37027        -1.29485
C         11.07438        10.59263        -0.79797
C          9.81732         9.89878        -1.16708
C         11.05427        12.00467        -0.63755
C          9.80668        12.73653        -0.53888
C         11.08907        14.86537        -0.36181
C          9.82775        14.14363        -0.36006
C         11.11349        16.28044        -0.26725
C          9.83036        17.00402        -0.23211
C         11.16594        19.18058         0.11459
C          9.87363        18.47803         0.00332
C         11.14172        20.59749         0.26434
C          9.91009        21.32111         0.44766
C         11.14535        23.45318         0.32041
C          9.93200        22.72685         0.47219
C         11.12651        24.89914         0.29380
C          9.88426        25.60800         0.22030
C         11.12339        27.74140         0.07420
C          9.87866        27.03611         0.07841
C         11.13009        29.16268        -0.07781
C          9.88768        29.84208        -0.22627
C         11.16398        32.03699        -0.26481
C          9.90571        31.29577        -0.42639
C         11.12312        33.48303        -0.32318
C          9.90407        34.18931        -0.25109
C         11.09950        36.22024        -0.73441
C          9.86460        35.60008        -0.44820
C         11.04247        38.27815        -0.16814
C          9.73690        38.58934         0.21354
C         13.48213         3.39518        -0.51182
C         12.24873         4.09888        -0.59339
C         13.54432         6.23277        -1.02483
C         12.25515         5.52159        -0.72261
C         13.51348         7.69713        -0.67750
C         12.28049         8.39965        -0.75446
C         13.50572        10.54131        -0.45077
C         12.27046         9.85055        -0.66621
C         13.50011        11.97014        -0.47489
C         12.30097        12.70760        -0.54007
C         13.53704        14.90075        -0.40628
C         12.31903        14.16035        -0.46750
C         13.55166        16.28963        -0.20145
C         12.32782        17.00360        -0.17660
C         13.60055        19.18512        -0.12130
C         12.35733        18.46265        -0.04550
C         13.57132        20.59482        -0.07210
C         12.36525        21.31448         0.15771
C         13.61454        23.46259         0.27787
C         12.36451        22.74845         0.21271
C         13.60053        24.90387         0.42279
C         12.35381        25.61012         0.30878
C         13.59363        27.75721         0.24900
C         12.35793        27.03810         0.21946
C         13.60282        29.18055         0.10966
C         12.36774        29.88672        -0.08561
C         13.62539        32.05423        -0.33201
C         12.35179        31.32012        -0.21171
C         13.60795        33.53386        -0.27288
C         12.36236        34.20886        -0.34933
C         13.53415        36.41172        -0.21289
C         12.34946        35.62759        -0.44418
C         13.48394        37.79770         0.21329
C         12.29700        38.57061         0.41003
C         15.90964         3.38143        -0.09728
C         14.71533         4.08702        -0.38544
C         15.95666         6.21239        -0.27954
C         14.75429         5.51027        -0.49556
C         15.97681         7.64770        -0.29639
C         14.73473         8.37986        -0.43944
C         15.97454        10.48144         0.00860
C         14.71473         9.79293        -0.30166
C         16.01080        11.98670        -0.12438
C         14.78519        12.68868        -0.59134
C         16.09002        14.92139        -0.30097
C         14.82264        14.20005        -0.58844
C         16.09860        16.27078        -0.08106
C         14.82032        17.01410         0.21566
C         16.08515        19.13199        -0.29792
C         14.86071        18.47652        -0.18190
C         16.10496        20.60108        -0.54454
C         14.79977        21.35987        -0.34198
C         16.05913        23.39606         0.53825
C         14.81512        22.77019         0.11001
C         16.05707        24.92356         0.79059
C         14.80168        25.62873         0.53063
C         16.07246        27.75137         0.46861
C         14.82802        27.05229         0.41358
C         16.05784        29.17010         0.40874
C         14.85297        29.86341         0.21319
C         16.08365        32.13264         0.35540
C         14.89731        31.31937        -0.06242
C         16.07123        33.60000         0.10619
C         14.78998        34.27202        -0.22988
C         15.99672        36.36201         0.17681
C         14.76668        35.69798        -0.13345
C         15.91648        37.68643         0.67250
C         14.69731        38.35435         0.71465
C         18.33420         3.33669         0.36674
C         17.12478         4.05956         0.08299
C         18.40267         6.17210         0.16900
C         17.16276         5.48523        -0.00312
C         18.46622         7.59477         0.05226
C         17.22401         8.33666        -0.13369
C         18.51000        10.46658        -0.08937
C         17.23614         9.73257        -0.05108
C         18.49549        11.92774         0.24937
C         17.32366        12.67883        -0.30196
C         18.61300        14.86629         0.06683
C         17.36877        14.17556        -0.35598
C         18.60563        16.28354         0.08146
C         17.35121        17.01032        -0.03970
C         18.63196        19.10555        -0.28254
C         17.33243        18.40031        -0.16423
C         18.67285        20.62232        -0.33678
C         17.38619        21.38634        -0.37388
C         18.59726        23.34045         0.87629
C         17.36892        22.78363         0.16576
C         18.59566        24.88482         0.92335
C         17.33576        25.64682         0.70981
C         18.59610        27.75665         0.39847
C         17.33540        27.02664         0.55682
C         18.58981        29.16161         0.21395
C         17.34894        29.90871         0.50035
C         18.58556        32.10559        -0.10811
C         17.39436        31.41112         0.44063
C         18.52979        33.49758        -0.43776
C         17.34551        34.32262        -0.14642
C         18.43960        36.62897        -0.09517
C         17.28370        35.71070        -0.03249
C         18.38755        37.87462         0.57392
C         17.14189        38.27893         1.32044
C         19.51670         3.99593         0.55285
C         20.80340         6.10895         0.65279
C         19.58387         5.42517         0.45750
C         20.86052         7.48908         0.54337
C         19.71177         8.24697         0.22561
C         21.01040        10.49921         0.43557
C         19.81042         9.71513         0.03011
C         21.00669        11.83758         0.58238
C         19.76334        12.65376         0.53592
C         20.97195        14.85716         0.64021
C         19.78876        14.14111         0.37126
C         21.00279        16.24015         0.56641
C         19.83496        16.98489         0.27823
C         21.05542        19.15975         0.18972
C         19.87116        18.41424         0.11667
C         21.08659        20.55705         0.14121
C         19.90779        21.33086         0.06290
C         21.07802        23.49347         0.27849
C         19.88262        22.72081         0.33814
C         21.10629        24.85197         0.41823
C         19.89638        25.63221         0.73459
C         21.00793        27.78774         0.08503
C         19.83416        27.06954         0.37231
C         20.97764        29.15331        -0.15985
C         19.76964        29.87766        -0.08456
C         20.84733        31.92893        -0.99556
C         19.73918        31.32333        -0.36875
C         20.78882        33.25658        -1.39718
C         19.64732        34.02171        -1.13245
C         20.66675        37.25650        -0.93391
C         19.58508        36.37106        -0.87471
C         20.62014        38.44582        -0.20501
C         19.47613        38.75619         0.53171
O          1.77465        33.90987         0.53357
O          2.07171         4.46532        -1.68518
O         19.30672        10.15132        -1.28768
O          9.63839        17.96477        -1.35572
O         18.81668        19.83205        -1.55996
O         14.48597        31.58652        -1.45408
O          8.05671        23.24550         2.03246
O          2.95716        16.74372        -0.99746
O         17.53353        30.72674         1.72719
O         14.90543        13.42256        -1.84233
O          5.70832        22.79179        -0.86942
O          3.54964         7.02368        -2.09339
O          8.24385        18.57493         1.88892
O         11.10879        37.46733        -1.33520
O          8.74987         7.27963         0.74964
O          5.25465        29.67371         1.12964
O         19.34822        25.36333         2.09244
O         15.33601        21.06371        -1.68842
O         17.49977        22.55912        -1.25955
O         18.82049        12.24907         1.62953
O          2.91700        31.45690        -1.86067
O         16.00259        23.94397         1.88318
O          4.39892        21.03559         2.23721
O         15.90479        33.02868         1.49497
O          9.18464        31.78540        -1.65236
O         15.86394        11.40972         1.19664
O         19.62529        35.27651        -1.74774
O         17.55185        13.32851        -1.57061
O          4.25348        14.37727         1.64718
O          9.12217        10.50398        -2.31129
O         18.50587        22.86907         2.24523
H         18.93401        23.55646         2.80740
O          3.29513        23.57760        -1.21212
H          4.15821        23.51302        -1.68622
O         17.20940        37.81170         2.68499
H         17.22606        36.83208         2.66858
O         13.67447         6.18236        -2.50880
H         13.65980         5.23554        -2.76637
O          8.61316        33.39100         1.60159
H          8.53413        34.30123         1.95711
O          3.87114        24.56222         2.25899
H          3.94196        25.42327         2.72208
O          1.50358        20.52758         3.04056
H          2.47111        20.64667         3.17215
O         14.75533        17.03086         1.69250
H         13.95412        17.53676         1.94780
O          3.68388        28.76214        -2.04674
H          3.44725        29.59649        -2.51274
O          9.63218         8.03918        -2.70237
H          9.33698         8.86305        -3.16004
H          1.21909         2.41768         0.77340
H         -0.89599         3.69832         0.88481
H         -0.98623         6.07316         0.33555
H         -1.08076         7.92729        -0.11471
H         -1.07473        10.35171        -0.02424
H         -1.06604        12.23535        -0.12823
H         -1.06219        14.65995         0.14587
H         -0.93151        16.40758         1.25038
H         -0.88403        18.81674         1.67270
H         -1.00566        20.84191         1.60635
H         -0.99738        23.22405         1.20337
H         -0.96367        25.13095         1.17685
H         -0.93020        27.56474         1.00512
H         -0.77121        29.54556         1.26011
H         -0.82170        31.94423         0.70817
H         -0.98867        33.63491        -1.31854
H         -0.86468        36.04730        -1.70715
H          0.35103        38.20851        -1.59858
H          3.70808         2.35101         0.21011
H          2.46329        39.48058        -1.35130
H          6.10219         2.35584        -0.06365
H          4.89160        39.52901        -0.80374
H          8.54614         2.35765        -0.22527
H          7.31004        39.54475        -0.16747
H         11.00924         2.31872        -0.40963
H          9.54913        39.43148         0.89626
H         13.46947         2.29944        -0.42301
H         12.36654        39.42063         1.10604
H         15.88023         2.28516        -0.01070
H         14.66494        39.36623         1.14681
H         18.28854         2.24016         0.43551
H         17.06714        39.39340         1.36721
H         20.43815         3.43866         0.77555
H         21.71355         5.53666         0.88185
H         21.82512         7.99477         0.68527
H         21.96398         9.96200         0.54724
H         21.95432        12.34439         0.81702
H         21.89379        14.31920         0.89816
H         21.95448        16.75583         0.74823
H         22.00772        18.64242         0.36929
H         22.05029        21.05135         0.32423
H         22.01274        22.98763        -0.00274
H         22.05794        25.37761         0.26603
H         21.97944        27.27723         0.07180
H         21.92699        29.66616        -0.35983
H         21.74606        31.34626        -1.23253
H         21.62078        33.70991        -1.95098
H         21.52897        37.01656        -1.56914
H         21.46299        39.14922        -0.24103
H         19.41281        39.71095         1.07230
