         324
 CSIRO Nanostructure Databank - Neutral Graphene Oxide Data Set
C         30.66676        57.27528        -1.26138
C         30.51762        58.72457        -1.19404
C         29.76464        59.43657        -2.22873
C         30.86197        61.52795        -1.64633
C         29.86310        60.80127        -2.33980
C         32.87282        52.97066        -0.67676
C         32.95491        54.46357        -0.42386
C         31.88944        55.20448        -0.93216
C         32.86143        57.29154        -0.07297
C         31.79109        56.61085        -0.73467
C         32.62128        58.71408         0.42102
C         31.56470        59.49781        -0.39139
C         33.01187        61.53717        -0.49362
C         31.80638        60.89077        -0.82440
C         35.47872        48.76459        -0.86741
C         35.40593        50.11703        -0.34470
C         34.34046        50.88998        -0.78961
C         35.19279        52.85729         0.56678
C         34.05254        52.17621        -0.17564
C         35.11149        54.33379         0.94791
C         34.01121        55.11004         0.24057
C         35.17304        57.22663         0.84038
C         34.00820        56.55127         0.37471
C         35.20167        58.69648         0.90900
C         33.92411        59.49303         0.65101
C         35.33803        61.49125         0.20493
C         34.09160        60.87138         0.12445
C         37.88941        44.47432        -0.47482
C         37.78511        45.83639        -0.15669
C         36.63672        46.50762        -0.69895
C         37.79863        48.68718         0.83563
C         36.17605        47.74778        -0.22588
C         37.76192        50.07164         0.64218
C         36.50967        50.77737         0.36513
C         37.71053        52.92477         0.79515
C         36.49082        52.16738         0.54421
C         37.68493        54.27316         1.03764
C         36.44685        55.07367         0.72080
C         37.73949        57.18976         1.14530
C         36.40308        56.48033         1.35499
C         37.71319        58.66520         1.12965
C         36.48938        59.39774         0.79536
C         37.78798        61.45273         0.36866
C         36.53603        60.78287         0.53650
C         40.29164        40.22526        -0.77250
C         40.26376        41.59347        -0.43019
C         39.07697        42.34433        -0.54704
C         40.22062        44.35364         0.31809
C         39.04965        43.71009        -0.21768
C         40.15735        45.76669         0.61878
C         38.93733        46.48875         0.46667
C         40.21261        48.60970         0.79235
C         38.97397        47.90412         0.73873
C         40.20077        50.03252         0.75984
C         39.00661        50.74956         0.67004
C         40.23671        52.86542         1.15401
C         39.03037        52.24301         0.49242
C         40.18507        54.27474         1.59310
C         38.84866        55.02464         1.66447
C         40.22346        57.19452         1.12293
C         38.92736        56.50531         1.25334
C         40.25907        58.59493         0.84127
C         39.03772        59.40209         0.98042
C         40.23378        61.39533         0.12634
C         39.01268        60.78672         0.46505
C         42.73399        36.02628        -1.46576
C         42.71228        37.38293        -1.07648
C         41.51132        38.12326        -1.07626
C         42.70677        40.14498        -0.29632
C         41.48874        39.48759        -0.71076
C         42.68725        41.50428         0.09522
C         41.46158        42.24273         0.03636
C         42.60019        44.19766         1.07704
C         41.41083        43.60211         0.43357
C         42.54949        45.68713         1.38767
C         41.36197        46.46344         0.97650
C         42.68603        48.58453         1.10865
C         41.43267        47.86774         0.93962
C         42.71683        49.99275         0.96537
C         41.48882        50.77274         0.51045
C         42.68827        52.92012         1.10557
C         41.43670        52.20357         1.03349
C         42.71489        54.29049         1.19817
C         41.48977        55.05030         1.49925
C         42.69185        57.18111         0.93631
C         41.46097        56.50617         1.19798
C         42.69685        58.57322         0.59977
C         41.45939        59.27241         0.54387
C         42.67561        61.34570        -0.02234
C         41.45888        60.68890         0.21682
C         45.18374        33.23915        -1.95121
C         43.97839        33.93423        -1.90953
C         45.16694        35.94185        -1.13293
C         43.94253        35.29452        -1.50384
C         45.16328        37.30893        -0.72353
C         43.93941        38.03881        -0.69342
C         45.15829        40.05597         0.03671
C         43.93146        39.40280        -0.30349
C         45.14568        41.44513         0.39501
C         43.91588        42.16368         0.48052
C         45.12704        44.17318         1.22410
C         43.90890        43.51082         0.93106
C         45.14311        45.61120         1.63222
C         43.83811        46.41568         1.64566
C         45.13789        48.53774         1.46836
C         43.89899        47.87260         1.39477
C         45.16719        49.98916         1.37503
C         43.92478        50.68763         1.13572
C         45.16244        52.90165         1.18424
C         43.93763        52.13590         0.74471
C         45.17274        54.32524         0.68513
C         44.00752        55.04551         1.38170
C         45.16477        57.16741         0.80470
C         43.95067        56.49987         0.97936
C         45.17239        58.59235         0.53964
C         43.92546        59.26897         0.39793
C         45.13887        61.36736        -0.08424
C         43.91997        60.67409         0.08983
C         46.38216        33.86389        -1.59437
C         47.59968        35.87574        -0.79617
C         46.39081        35.21582        -1.18185
C         47.60244        37.19280        -0.38760
C         46.38408        37.94861        -0.35368
C         47.62214        40.01929         0.25141
C         46.38032        39.33037         0.00949
C         47.62144        41.40687         0.51691
C         46.37148        42.12118         0.65431
C         47.64271        44.15459         1.31698
C         46.35012        43.48298         1.04562
C         47.66748        45.65697         1.50440
C         46.38624        46.39505         1.48175
C         47.67534        48.49191         1.61885
C         46.37216        47.77618         1.53125
C         47.66503        49.99526         1.59334
C         46.37718        50.69308         1.45362
C         47.70686        52.92556         1.35742
C         46.43338        52.16506         1.45244
C         47.68562        54.28651         1.15639
C         46.46576        55.05236         0.94927
C         47.68551        57.20202         0.95062
C         46.42262        56.43042         0.91387
C         47.66378        58.66636         0.64969
C         46.37164        59.32699         0.40194
C         47.62203        61.43227        -0.08367
C         46.38148        60.71668         0.06966
C         48.89375        37.80698         0.09347
C         50.06401        40.00084         0.18651
C         48.87013        39.31465         0.15548
C         50.09811        41.41772         0.36325
C         48.86700        42.11037         0.59695
C         50.09986        44.21996         0.80007
C         48.89394        43.49775         0.88029
C         50.11448        45.65915         0.91679
C         48.91907        46.37361         1.18826
C         50.11554        48.47991         0.95822
C         48.92129        47.77462         1.22848
C         50.15505        49.95092         1.16769
C         48.86895        50.75049         1.05784
C         50.24151        52.84642         1.16906
C         48.98865        52.15783         1.69243
C         50.26955        54.31824         1.20359
C         48.95653        55.05686         1.23350
C         50.18465        57.26448         0.83751
C         48.93997        56.42348         0.57431
C         50.21412        58.64586         0.25517
C         48.89012        59.33201         0.10817
C         50.11174        61.43062        -0.30123
C         48.87489        60.80017        -0.05648
C         51.30890        42.13353         0.33971
C         52.54096        44.26925         0.37988
C         51.32730        43.53157         0.50334
C         52.55936        45.66442         0.42013
C         51.31257        46.37773         0.65077
C         52.48229        48.50981         0.04072
C         51.29755        47.78838         0.64338
C         52.58903        49.97885         0.34872
C         51.40653        50.70332         0.84878
C         52.34536        52.86883        -0.18497
C         51.33188        52.17487         0.70887
C         52.54946        54.34329         0.16152
C         51.46753        55.02798         0.72606
C         52.65657        57.22957         0.39392
C         51.51814        56.48441         0.87497
C         52.65948        58.64772         0.37695
C         51.46848        59.43082         0.28380
C         52.50585        61.57315        -0.66283
C         51.39822        60.80571        -0.18329
C         53.78001        46.39396         0.27492
C         54.99283        48.52878         0.02032
C         53.80453        47.78947         0.17227
C         55.00053        49.94863        -0.12645
C         53.72473        50.65603         0.00648
C         54.97572        52.83508        -0.43597
C         53.67594        52.10456        -0.31929
C         54.97247        54.32068        -0.41842
C         53.73211        55.01972        -0.23411
C         55.12638        57.10859        -0.02678
C         53.73727        56.52286        -0.37213
C         55.14866        58.62801        -0.07467
C         53.96390        59.25360         0.37769
C         55.07006        61.46403        -1.03826
C         53.87407        61.28437        -0.38966
C         56.19853        50.67096        -0.20510
C         57.43362        52.81753        -0.17524
C         56.25807        52.10862        -0.23438
C         57.46250        54.32200        -0.10750
C         56.18328        54.97725        -0.55571
C         57.51718        57.15320        -0.71538
C         56.20199        56.44904        -0.88495
C         57.51414        58.56382        -0.75721
C         56.31101        59.32148        -0.43890
C         57.56508        61.40053        -1.15007
C         56.34999        60.86063        -0.45276
C         58.65873        54.97427        -0.73263
C         59.91495        57.07199        -1.18724
C         58.71540        56.37725        -0.87196
C         59.91830        58.47521        -1.34724
C         58.72616        59.23345        -1.11037
C         59.92331        61.28062        -1.81775
C         58.72295        60.65807        -1.34878
C         61.09871        59.16070        -1.76106
C         61.08574        60.53655        -1.99344
O         47.75480        44.74627         2.65770
O         51.05843        50.30750         2.24849
O         51.67436        52.91045        -1.42326
O         45.54294        52.71061         2.55108
O         47.84050        58.16140         2.03377
O         50.86392        57.09440         2.06000
O         30.23856        59.28870         0.17027
O         54.28370        52.32611        -1.63537
O         47.82934        49.28379         2.85052
O         54.00197        60.54079         0.85231
O         44.46205        45.96926         2.87962
O         49.69409        54.88642         2.45954
O         49.49560        58.66707        -1.06321
O         34.14477        52.11693         1.29828
O         43.98919        51.91413        -0.67312
O         38.41030        59.26205         2.29139
O         36.59502        48.03650         1.09368
O         42.27915        44.69376         2.42291
O         40.95098        54.60309         2.80555
O         34.39804        59.32409         1.99709
O         55.39028        56.77580         1.35568
H         56.10310        56.09259         1.41753
O         44.96947        54.34857        -0.74078
H         44.58730        53.46474        -1.01795
O         44.27576        55.03094         2.80859
H         43.42636        55.12968         3.28840
O         39.22628        52.48302        -0.94852
H         40.03758        51.96222        -1.20371
O         48.59535        50.93009        -0.35232
H         49.32095        51.45670        -0.75754
O         36.53331        55.32770        -0.71931
H         37.05657        54.60895        -1.13546
O         41.56890        50.89843        -0.94970
H         42.48269        51.29678        -1.12191
O         57.50186        54.68684         1.36120
H         58.41391        54.51831         1.68432
O         36.22557        56.47966         2.78188
H         35.60528        55.75135         3.02678
O         50.00314        37.33946        -0.68280
H         49.86948        37.62394        -1.60985
O         31.67674        52.44319        -0.08321
H         31.86616        52.28977         0.86696
O         48.87879        56.12395        -0.83609
H         48.94760        56.97849        -1.33425
O         55.95443        56.60632        -2.30621
H         54.98161        56.51325        -2.46723
O         56.52304        61.28764         0.93409
H         55.66576        61.11892         1.39317
O         38.47178        55.03906         3.06959
H         39.29981        55.18549         3.58370
O         53.41255        56.82582        -1.78189
H         52.71203        56.19839        -2.06654
O         32.05837        58.49687         1.73941
H         31.07742        58.48247         1.62593
O         49.03833        52.02731         3.11927
H         49.20917        52.91996         3.49231
O         34.79522        54.34867         2.36298
H         34.22957        53.55897         2.53489
O         52.16981        48.48353        -1.40537
H         52.83973        49.03491        -1.86556
H         29.94405        56.69862        -1.85681
H         29.11127        58.86054        -2.89928
H         31.00454        62.59246        -1.88183
H         29.23691        61.33515        -3.06877
H         32.78215        52.81228        -1.78478
H         31.07475        54.68238        -1.45352
H         33.16046        62.57585        -0.82562
H         34.94149        48.54951        -1.80309
H         33.62825        50.47953        -1.51974
H         35.42882        62.53569        -0.12852
H         37.03827        43.97940        -0.96544
H         36.12750        46.02804        -1.54859
H         37.77646        62.50597         0.05144
H         39.36713        39.73339        -1.10839
H         38.16528        41.86140        -0.92772
H         40.24341        62.44840        -0.19184
H         41.79351        35.53441        -1.75553
H         40.57480        37.63465        -1.38319
H         42.66630        62.41783        -0.26916
H         45.19419        32.18684        -2.26826
H         43.04146        33.43416        -2.19378
H         45.11517        62.44066        -0.32415
H         47.32782        33.30446        -1.63020
H         48.54777        35.31837        -0.81995
H         47.57368        62.51638        -0.26583
H         49.07324        37.43544         1.14337
H         51.00816        39.44743         0.07682
H         50.09525        62.49464        -0.58477
H         52.25107        41.59665         0.15543
H         53.47726        43.71965         0.20054
H         52.27029        62.47955        -1.24111
H         54.72516        45.83068         0.22735
H         55.95675        47.99626         0.04060
H         55.10439        61.93986        -2.02733
H         57.14923        50.11528        -0.18580
H         58.38767        52.27854        -0.05860
H         57.58415        62.48132        -1.35914
H         59.55561        54.37322        -0.94672
H         60.84424        56.50639        -1.34828
H         59.92080        62.36224        -2.01302
H         62.02054        58.58397        -1.92275
H         62.00454        61.03691        -2.33044
