         236
 CSIRO Nanostructure Databank - Neutral Graphene Oxide Data Set
C        -11.17318         0.64022         0.13865
C         -9.96402         1.41678         0.33900
C         -8.66600         0.63927         0.46327
C         -7.56022         1.45907        -0.22524
C         -6.21925         0.74830        -0.21698
C         -5.07056         1.51425        -0.81600
C         -3.80479         0.76491        -1.08105
C         -2.50084         1.49964        -1.09519
C         -1.26723         0.75808        -0.72951
C         -0.09734         1.44792        -0.05255
C          1.19498         0.68423        -0.35017
C          2.42341         1.43280        -0.16818
C          3.60426         0.68961         0.30153
C          4.88392         1.45935         0.49919
C          6.19811         0.72417         0.72416
C          7.33915         1.39939        -0.01727
C          8.62173         0.65759        -0.13093
C          9.87981         1.43528        -0.27284
C         11.07318         0.67083        -0.59281
C         -9.96309         2.77835         0.48636
C         -8.71588         3.56078         0.72102
C         -7.43484         2.83436         0.41044
C         -6.26091         3.66477        -0.00764
C         -5.07381         3.01153        -0.62512
C         -3.76850         3.75180        -0.68660
C         -2.50235         2.99266        -0.96142
C         -1.21029         3.64182        -0.63087
C         -0.07347         2.93837        -0.39549
C          1.19388         3.61275         0.07177
C          2.45419         2.81671        -0.16870
C          3.70785         3.52561        -0.17713
C          4.90840         2.87155         0.05430
C          6.17536         3.58289         0.01415
C          7.39475         2.87430         0.01887
C          8.63057         3.56446        -0.01304
C          9.85698         2.80583        -0.19470
C         -8.64369         5.04492         0.68310
C         -7.45362         5.73764         0.67627
C         -6.12634         4.99104         0.71258
C         -4.91870         5.80288         0.28215
C         -3.69534         5.12771        -0.11366
C         -2.49182         5.80705        -0.18389
C         -1.24373         5.15683        -0.76073
C          0.00031         5.78363        -0.17826
C          1.27207         5.05495        -0.35720
C          2.43169         5.71582        -0.56039
C          3.71147         4.95907        -0.56455
C          4.99649         5.72711        -0.38664
C          6.20801         4.99096        -0.02118
C          7.42357         5.70449         0.14309
C          8.63124         4.97497         0.12703
C         -7.39072         7.17862         0.70957
C         -6.18737         7.86942         0.67875
C         -4.93505         7.16512         0.48594
C         -3.63732         7.90805         0.67528
C         -2.44056         7.23447         0.05789
C         -1.28381         7.95748        -0.09721
C          0.01183         7.25467        -0.03077
C          1.26996         8.03528        -0.29069
C          2.48071         7.20758        -0.70793
C          3.80869         7.83698        -0.56746
C          4.95602         7.19450        -0.19338
C          6.16010         7.85977         0.30005
C          7.34327         7.13706         0.37357
C         -6.13506         9.32048         0.72784
C         -4.97939        10.03024         0.58875
C         -3.68274         9.39569         0.41429
C         -2.54752        10.10377         0.16147
C         -1.22636         9.46234        -0.20411
C          0.01322         9.98526         0.52065
C          1.23705         9.39378         0.38078
C          2.42983         9.92509         1.06707
C          3.69309         9.74131         0.57970
C          4.99706         9.95140         1.18982
C          6.09598         9.17798         0.92809
C        -11.15564        -0.71000        -0.04475
C         -9.92047        -1.47759        -0.14397
C         -8.69183        -0.78516        -0.06775
C         -7.48051        -1.48823        -0.25284
C         -6.19651        -0.74054        -0.24280
C         -4.98007        -1.42634        -0.72423
C         -3.77152        -0.70462        -0.86335
C         -2.55756        -1.41344        -0.82907
C         -1.31927        -0.70983        -0.47086
C         -0.02565        -1.46475        -0.50419
C          1.23144        -0.67160        -0.58181
C          2.59071        -1.34602        -0.81545
C          3.57124        -0.82955         0.28573
C          4.96481        -1.43523         0.18190
C          6.12891        -0.76350         0.40001
C          7.41204        -1.54318         0.67421
C          8.70452        -0.75034         0.37484
C          9.97401        -1.46942         0.00275
C         11.08867        -0.68585        -0.57839
C         -9.90708        -2.87829        -0.29093
C         -8.69356        -3.59451        -0.37892
C         -7.46713        -2.88449        -0.44631
C         -6.14794        -3.65024        -0.43327
C         -4.99916        -2.80027        -0.98547
C         -3.77508        -3.35212        -1.42114
C         -2.52555        -2.80679        -1.05879
C         -1.29827        -3.61352        -0.92823
C         -0.06669        -2.92270        -0.77427
C          1.19072        -3.59347        -0.56932
C          2.54376        -2.90437        -0.80175
C          3.75191        -3.53419        -0.13454
C          4.95582        -2.88736         0.00891
C          6.22571        -3.59901        -0.09378
C          7.41131        -2.92817         0.04790
C          8.69361        -3.60980        -0.18401
C          9.90305        -2.91879        -0.18863
C         -8.64594        -5.03190        -0.18158
C         -7.47611        -5.75373        -0.25911
C         -6.27751        -5.10872        -0.96543
C         -4.99584        -5.92602        -0.74810
C         -3.78637        -5.52004        -1.24495
C         -2.46530        -5.94189        -0.81671
C         -1.33210        -5.06827        -0.83546
C         -0.02824        -5.73771        -0.65292
C          1.19245        -4.96039        -0.41001
C          2.43695        -5.59232         0.16120
C          3.67163        -4.98286        -0.53295
C          4.94198        -5.75739        -0.27287
C          6.21219        -5.02117        -0.64608
C          7.47743        -5.75450        -0.25977
C          8.69309        -5.02235        -0.32497
C         -7.40421        -7.05283         0.35853
C         -6.23409        -7.77042         0.49972
C         -5.02068        -7.28278        -0.17945
C         -3.69223        -7.97478         0.04704
C         -2.42309        -7.24602        -0.20967
C         -1.23093        -7.85187         0.16994
C          0.01711        -7.23264        -0.24822
C          1.28731        -7.81308         0.23828
C          2.43049        -7.08648         0.24174
C          3.70157        -7.72361         0.73197
C          4.95214        -6.97970         0.30845
C          6.22531        -7.65316         0.78305
C          7.46895        -7.04662         0.20422
C         -6.12351        -8.99631         1.24610
C         -4.92216        -9.61614         1.48035
C         -3.65867        -9.10902         1.00041
C         -2.44765        -9.65411         1.36751
C         -1.19359        -9.10558         0.90433
C          0.01155        -9.77018         1.09725
C          1.28034        -9.21482         0.68933
C          2.47731        -9.88244         0.76260
C          3.72130        -9.18366         0.25234
C          5.03150        -9.85928         0.57545
C          6.17215        -9.16578         0.68442
O          3.37327        -4.82832        -1.98984
O          0.12796        -6.82815        -1.64138
O         -3.39954         7.77392         2.13177
H         -2.43274         7.84821         2.28680
O          7.38351        -1.78804         2.10781
H          8.30463        -1.65870         2.43862
O          3.98625         1.20422         1.64092
O         -8.40970         0.49575         1.87653
H         -7.45487         0.27373         1.99282
O          7.70649         0.77201        -1.28776
O         -7.84013         2.97493         1.77700
O         -4.48619        -8.27184        -1.15484
O         -5.90586         0.03110         1.01639
O          1.63003         7.88888        -1.69971
O          6.33436        -7.37235         2.21926
H          5.44768        -7.60244         2.60124
O         -6.10036         3.69193        -1.45522
O          6.53774         0.85947         2.12286
H          5.70700         0.72394         2.63258
O         -7.95019         1.63232        -1.60214
H         -7.32022         2.27158        -2.01736
O          4.53455         5.28738        -1.73246
O          9.69401        -0.97229         1.40813
O          2.87344        -3.41031        -2.18297
O         -3.78963        -4.49629        -2.19408
O         -3.20630         3.67827        -2.05469
O         -0.74933        -1.15923         0.77977
O         -0.31218         1.44695         1.34078
O         -4.73138         1.11404        -2.17657
O         -5.79586        -3.81546         0.97259
H         -5.80934        -2.93314         1.40175
O          3.63378        -9.12015        -1.20009
H          3.51104       -10.03003        -1.54105
O          3.13857        -0.88938        -2.06101
H          2.70667        -1.37049        -2.79788
O         -1.03149         9.77094        -1.62096
H         -0.22190         9.30642        -1.92787
O          3.78596         9.22180        -0.73070
O         -0.03320         6.36692         1.16662
O          1.08907         3.64204         1.52453
H          0.61883         2.79086         1.78776
O         -6.56856        -5.02411        -2.37049
H         -6.51252        -5.92250        -2.75601
O          3.02679        -1.29020         1.54235
H          3.20309        -0.59107         2.21232
O          3.65832        -7.71245         2.18995
H          3.28844        -6.83353         2.44631
O         -1.52932         1.06611        -2.12235
O          6.23904        -4.90507        -2.09663
H          5.31741        -4.72028        -2.39898
O          2.51164        -5.18981         1.57601
H          2.63029        -4.21253         1.61610
O         -5.82392         4.64707         2.09333
H         -5.77293         5.47917         2.60928
O         -1.19401         5.47815        -2.17494
H         -1.94394         4.99393        -2.60049
H         11.98064        -1.23545        -0.91380
H         11.96228         1.22326        -0.93235
H         10.79911         3.36594        -0.29871
H          9.59079         5.51069         0.17710
H          8.25408         7.64606         0.72618
H          7.03857         9.49330         1.40627
H          5.11304        10.79638         1.88713
H          2.27822        10.45032         2.02209
H         -0.05849        10.94353         1.05904
H         -2.61353        11.19747         0.04065
H         -5.01867        11.13055         0.57596
H         -7.08792         9.85907         0.84378
H         -8.33488         7.74165         0.77426
H         -9.59066         5.60850         0.67833
H        -10.91278         3.33335         0.42029
H        -12.13711         1.17221         0.15495
H        -12.10494        -1.25420        -0.16143
H        -10.85777        -3.43245        -0.27461
H         -9.55059        -5.51711         0.21994
H         -8.32120        -7.43091         0.83956
H         -7.04162        -9.42247         1.67773
H         -4.90173       -10.52661         2.09815
H         -2.42245       -10.53408         2.02827
H          0.00578       -10.76245         1.57276
H          2.52398       -10.92503         1.11240
H          5.05418       -10.96149         0.59463
H          7.12183        -9.69587         0.86020
H          8.42804        -7.53693         0.44055
H          9.65318        -5.56004        -0.27196
H         10.82763        -3.46205        -0.43908
