         324
 CSIRO Nanostructure Databank - Neutral Graphene Oxide Data Set
C          1.19841         3.37144         0.48672
C         -0.01135         4.06578         0.46673
C          1.14938         6.20443         0.27410
C         -0.04730         5.45854         0.36643
C          1.15429         7.67374         0.15744
C         -0.02758         8.42509         0.51036
C          1.04998        10.58768         0.00333
C         -0.03645         9.78379         0.57427
C          1.15822        12.04545         0.29863
C         -0.00117        12.72523         0.73346
C          1.13100        14.86186         0.53130
C         -0.00869        14.09819         0.86464
C          1.00032        16.29432         0.38937
C         -0.12605        17.05144         0.81242
C          0.69748        19.05914        -0.31474
C         -0.22591        18.40849         0.55153
C          0.60932        20.48149        -0.65248
C         -0.11828        21.45856        -0.00392
C          1.17131        23.55037        -0.63238
C          0.01994        22.86584        -0.22886
C          1.20814        25.01724        -0.57301
C          0.07178        25.80332        -0.80490
C          1.28525        27.88076        -0.34362
C          0.10998        27.20227        -0.72567
C          1.37738        29.31615        -0.29829
C          3.69359         3.40400         0.47326
C          2.41757         4.07283         0.36510
C          3.63921         6.22613         0.18622
C          2.36435         5.48984         0.24710
C          3.62143         7.69540        -0.06489
C          2.32019         8.37058        -0.14145
C          3.61475        10.56238        -0.50710
C          2.30800         9.81413        -0.42257
C          3.61129        12.05983        -0.27275
C          2.35045        12.76952         0.10044
C          3.55633        14.99763        -0.02739
C          2.35657        14.19860         0.19810
C          3.36455        16.36076        -0.33817
C          2.03396        16.96151        -0.31209
C          3.71372        19.40616        -1.35965
C          1.77038        18.27187        -0.78502
C          3.71382        20.78698        -1.26879
C          2.50354        21.56107        -1.31666
C          3.70792        23.68605        -0.80487
C          2.42835        22.87444        -0.88167
C          3.59870        24.93788         0.01667
C          2.43359        25.67837        -0.16860
C          3.63147        27.77237         0.38321
C          2.43969        27.11852        -0.00880
C          3.71650        29.20985         0.43196
C          2.54196        29.94930         0.04691
C          6.18095         3.56614         0.52432
C          4.89529         4.05179         0.18887
C          6.03659         6.16882        -0.78246
C          4.81106         5.44755        -0.31362
C          6.06630         7.63741        -0.59065
C          4.87635         8.38796        -0.45773
C          6.14469        10.50567        -0.19841
C          4.87337         9.79198        -0.40588
C          6.18598        11.97877         0.06916
C          4.87910        12.76058         0.13683
C          6.23846        14.88017        -0.03390
C          4.88212        14.26629         0.19242
C          6.34838        16.21981         0.13400
C          4.45959        17.32761        -0.24418
C          6.03937        19.23602        -0.37898
C          4.73538        18.57675        -0.76924
C          6.12668        20.71137        -0.52899
C          5.02358        21.51667        -1.16253
C          6.12197        23.50947        -0.20551
C          4.95835        22.89040        -0.54778
C          6.12196        25.00378         0.04969
C          4.79814        25.47668         0.77815
C          5.75043        27.71019         1.46621
C          4.73003        27.00143         0.86645
C          6.02302        29.10393         1.28870
C          4.91092        29.85389         0.81118
C          8.60102         3.80341         0.63745
C          7.37180         4.25286         0.17716
C          8.62585         6.09724        -1.18138
C          7.30689         5.28951        -0.93739
C          8.63537         7.50327        -0.55821
C          7.35919         8.29462        -0.37638
C          8.60352        10.43947        -0.56508
C          7.41407         9.77202        -0.42454
C          8.62380        11.92546        -0.78218
C          7.55084        12.70961        -0.02185
C          8.66613        14.84902        -0.64290
C          7.46976        14.16940        -0.42182
C          8.73663        16.29508        -0.49239
C          7.44699        16.99909        -0.42590
C          8.65402        19.19668        -0.67297
C          7.32769        18.46731        -0.60945
C          8.67371        20.69277        -0.66356
C          7.41874        21.43088        -0.56357
C          8.65546        23.50149        -0.25396
C          7.40707        22.79432        -0.31955
C          8.65895        24.87702         0.11193
C          7.46242        25.45912         0.61619
C          8.71020        27.51314         1.16480
C          7.62943        26.62608         1.35925
C          8.59214        28.95178         1.42099
C          7.33704        29.63629         1.48417
C         11.01792         3.65099         0.79530
C          9.87512         4.29437         0.18042
C         11.15316         6.08716        -1.07631
C          9.90811         5.36896        -0.73626
C         11.13165         7.61731        -1.01949
C          9.85379         8.30819        -0.76310
C         11.07795        10.42145        -0.78032
C          9.83297         9.68818        -0.70559
C         11.14514        11.79509        -1.06189
C          9.90477        12.63697        -1.18456
C         11.18830        14.97334        -0.77695
C          9.93076        14.22057        -1.25341
C         11.16582        16.33985        -0.36723
C          9.89953        17.01896        -0.35343
C         11.15286        19.23206        -0.20086
C          9.84152        18.49511        -0.01344
C         11.14127        20.66225        -0.26349
C          9.92732        21.39303        -0.37239
C         11.14105        23.52617        -0.33102
C          9.91138        22.80639        -0.33366
C         11.12410        24.96921        -0.21630
C          9.88047        25.60860         0.16216
C         10.98883        27.84030         0.24305
C          9.84475        26.97322         0.52440
C         11.03904        29.14799         0.93270
C          9.80409        29.68997         1.40095
C         13.54578         3.38827         0.97290
C         12.33153         3.66027         0.31640
C         13.59424         6.13571        -0.33846
C         12.46945         5.48200        -0.80925
C         13.55070         7.58886        -0.26359
C         12.35164         8.31350        -0.56564
C         13.42465        10.49312        -0.00509
C         12.28362         9.70949        -0.49516
C         13.57061        11.89502        -0.42176
C         12.45801        12.35132        -1.14106
C         13.63926        14.95883        -0.38494
C         12.46245        14.47903        -1.02789
C         13.60734        16.34929        -0.05915
C         12.37054        17.05356        -0.13152
C         13.59615        19.20523         0.10442
C         12.37786        18.51375        -0.04205
C         13.61848        20.63821        -0.25822
C         12.36306        21.39949        -0.28209
C         13.62218        23.55685        -0.47872
C         12.37650        22.81067        -0.37598
C         13.49801        25.00479        -0.95195
C         12.29401        25.70291        -0.35629
C         13.52699        27.89674         0.00140
C         12.27412        27.17073        -0.23272
C         13.51043        29.17581         0.59474
C         12.27288        29.78923         1.02024
C         15.98282         3.48424         1.05392
C         14.76795         4.06508         0.62518
C         16.00258         6.15345         0.20513
C         14.79792         5.41986         0.09729
C         15.97571         7.59667         0.11328
C         14.73170         8.28422         0.04359
C         15.93450        10.51090         0.36022
C         14.69545         9.73212         0.26804
C         15.96620        11.93898         0.28852
C         14.77091        12.65668        -0.11569
C         15.87443        14.76618         0.53925
C         14.76762        14.10974        -0.08451
C         15.84637        16.18103         0.77020
C         14.80680        17.00811         0.36960
C         16.19658        19.28261         0.39676
C         14.85989        18.49995         0.45407
C         16.16215        20.77933         0.16771
C         14.89270        21.43370        -0.26771
C         16.10338        23.61666        -0.56379
C         14.84456        22.91833        -0.38598
C         16.10994        25.08991        -0.74431
C         14.80185        25.81939        -0.86133
C         16.08172        27.94815        -0.04902
C         14.77605        27.28150        -0.47071
C         15.99540        29.20292         0.73381
C         14.74831        29.81443         0.92645
C         18.44559         3.53891         1.39043
C         17.21721         4.16502         1.00849
C         18.45602         6.27353         0.71267
C         17.23245         5.54449         0.63658
C         18.47577         7.70982         0.35504
C         17.13610         8.34604         0.40062
C         18.87149        10.81690         0.72409
C         17.00694         9.70157         0.75725
C         18.60130        12.15369         0.37568
C         17.20799        12.67017         0.51648
C         18.95099        15.17309         0.30360
C         17.05903        14.02188         0.79741
C         18.87936        16.57333         0.06398
C         17.79545        17.34596         0.58067
C         18.59777        19.29904        -0.55883
C         17.52885        18.63719         0.13814
C         18.53236        20.75001        -0.79335
C         17.39506        21.51988        -0.22404
C         18.57889        23.66942        -0.64189
C         17.31265        22.95440        -0.59922
C         18.57867        25.06752        -0.33117
C         17.34375        25.79543        -0.30944
C         18.51886        27.78624         0.49670
C         17.32462        27.14516         0.03921
C         18.44964        29.11691         1.03965
C         17.19525        29.76559         1.20655
C         19.62536         4.24653         1.40778
C         20.87542         6.40686         1.18319
C         19.65363         5.63472         1.07560
C         20.95158         7.73077         0.88238
C         19.80026         8.48509         0.34538
C         20.90223        10.67992        -0.46840
C         19.90235         9.99929         0.24495
C         20.82049        12.07033        -0.61973
C         19.69721        12.84400        -0.24217
C         20.62262        14.93450        -1.39134
C         19.73863        14.30773        -0.46358
C         20.70138        16.31306        -1.52151
C         19.80954        17.17480        -0.82745
C         20.93069        19.35949        -1.37373
C         19.75619        18.61161        -0.97119
C         20.99999        20.71829        -1.34405
C         19.78553        21.53015        -1.17128
C         21.00732        23.67527        -0.59289
C         19.80061        22.97638        -0.80031
C         21.00965        25.00754        -0.19941
C         19.80473        25.73401        -0.04790
C         20.93642        27.78946         0.83855
C         19.76990        27.10738         0.42264
C         20.86754        29.08914         1.34400
C         19.64471        29.74526         1.46186
O         15.53899        18.99510         1.66716
O          5.35123        16.93498         0.77424
O          8.89981        12.20653        -2.18684
O          3.65895        11.53585        -1.63456
O         15.61301        25.57210        -2.05341
O         13.78105        10.15106         1.36973
O          5.91057        20.09314         0.79740
O          6.63992        26.98874         2.27762
O         11.36463        27.86932        -1.16857
O         11.19019         6.90960        -2.29711
O          8.09199         7.65142         0.77976
O          8.85620        19.85501        -1.92793
O         15.53861        28.11349        -1.40188
O          6.18715        11.07039         1.22320
O         12.50702         4.10844        -1.01915
O          3.86795         7.11927         1.31462
O          1.34476        20.90115        -1.78279
O          1.32840        10.24950        -1.39901
O          7.11489        17.59284        -1.76722
O         16.91925        16.73479         1.48213
O         19.23477         7.94626        -0.90109
O         17.97603        10.21561         1.61189
O         18.75901        21.18530        -2.16868
O          7.14095         4.47918        -2.12750
O         18.18011        14.66493         1.35270
O          2.56972        18.75557        -1.83112
O         12.60962        13.46251        -1.96592
O          4.78078        13.44799         1.41480
O         14.43810        20.80961        -1.52352
O         17.00391        21.40010         1.19285
O          4.78113        24.90187         2.10435
H          5.42683        25.41169         2.64538
O          5.00012         5.70771        -1.74996
H          6.18759         4.55630        -2.38861
O          8.68953         6.36118        -2.58950
H          8.34894         5.55001        -3.03834
O          9.52619        18.57258         1.42082
H         10.26068        18.15209         1.91664
O          3.92109        24.18188        -2.21605
H          3.10906        24.67450        -2.47145
O          5.45981        21.73265        -2.54190
H          4.93907        22.48917        -2.89763
O          9.84599        14.54234        -2.66028
H          9.21393        13.90788        -3.06937
O         13.16954        24.89557        -2.36559
H         14.02493        24.92616        -2.85705
O          8.07492        12.77547         1.33576
H          7.55080        12.13822         1.88011
O          6.11405        25.64489        -1.25688
H          5.44093        25.18483        -1.81991
H          1.20668         2.27754         0.59375
H         -0.95582         3.50886         0.54351
H         -1.02178         5.96503         0.35522
H         -0.89529         7.87840         0.90465
H         -0.88814        10.28328         1.05547
H         -0.93079        12.17308         0.91851
H         -0.94151        14.60267         1.14804
H         -0.91422        16.57048         1.40699
H         -1.07923        18.97322         0.95292
H         -0.85875        21.15170         0.75080
H         -0.81346        23.48483         0.14035
H         -0.87001        25.31528        -1.09490
H         -0.79251        27.78140        -0.96902
H          0.48943        29.90689        -0.56748
H          3.70977         2.36348         0.83051
H          2.58588        31.04834         0.06079
H          6.26087         2.64184         1.11741
H          4.98588        30.94799         0.72059
H          8.61125         2.97980         1.36806
H          7.41048        30.73677         1.45040
H         10.82388         3.12391         1.74183
H          9.78370        30.74901         1.70215
H         13.56164         2.71226         1.84122
H         12.33313        30.77582         1.50414
H         15.96274         2.45529         1.44355
H         14.71122        30.78243         1.44868
H         18.43466         2.47471         1.66730
H         17.16669        30.74047         1.71628
H         20.56325         3.74947         1.69548
H         21.76759         5.89172         1.57082
H         21.88511         8.28046         1.07559
H         21.76445        10.13815        -0.88106
H         21.66653        12.57812        -1.10295
H         21.27407        14.31332        -2.02173
H         21.41896        16.74100        -2.23506
H         21.84838        18.78675        -1.57243
H         21.96684        21.21774        -1.50077
H         21.96669        23.15330        -0.71441
H         21.97477        25.49833        -0.01537
H         21.91542        27.29532         0.77988
H         21.78946        29.59292         1.66641
H         19.59970        30.76064         1.88068
