         424
 CSIRO Nanostructure Databank - Neutral Graphene Oxide Data Set
C          1.86568         2.30051         3.40955
C          1.77353         3.66767         3.15379
C          3.09085         1.63979         3.30959
C          2.91542         4.42437         2.80460
C          1.62635         6.55667         2.60238
C          1.57172         7.91211         2.32993
C          2.84647         5.84533         2.52641
C          2.73608         8.63465         1.98637
C          1.51889        10.74120         1.50959
C          1.46788        12.16028         1.31928
C          2.68838        10.07104         1.74695
C          2.60280        12.93088         1.33594
C          1.46332        15.12437         1.41008
C          1.48359        16.54482         1.31046
C          2.57392        14.36476         1.07711
C          2.52332        17.20600         0.70296
C          2.64559        18.64327         0.81078
C          4.25819         2.35167         2.97239
C          4.17984         3.76810         2.73824
C          5.49787         1.66356         2.78631
C          5.35355         4.49917         2.38879
C          4.02618         6.55268         2.14899
C          3.97299         7.95280         1.89578
C          5.28168         5.85668         2.05676
C          5.16528         8.65882         1.43735
C          3.99683        10.80742         1.92542
C          3.92452        12.28750         1.53945
C          5.15903        10.04714         1.29659
C          5.10154        12.96147         0.88217
C          3.72864        14.99457         0.45687
C          3.56964        16.41886        -0.05771
C          4.89092        14.28745         0.24305
C          4.87279        17.16809        -0.12346
C          3.73210        19.32932         0.38483
C          4.82069        18.64534        -0.40047
C          6.67139         2.33640         2.46825
C          6.70135         3.84537         2.55941
C          7.87995         1.65016         2.22394
C          7.78940         4.47677         1.73045
C          6.43962         6.55163         1.52112
C          6.34456         7.88317         1.14277
C          7.67850         5.80802         1.32119
C          7.42171         8.51143         0.29653
C          6.29564        10.75734         0.73043
C          6.25950        12.13300         0.49425
C          7.47565        10.01170         0.36343
C          7.31065        12.73776        -0.39877
C          6.05004        14.90814        -0.43217
C          6.04845        16.45179        -0.56044
C          7.35282        14.24196        -0.37487
C          7.34545        17.13105        -0.56460
C          6.16997        19.29171        -0.29105
C          7.35456        18.57471        -0.42219
C          9.04760         2.32442         1.81552
C          8.99067         3.74237         1.51921
C         10.26556         1.62665         1.62868
C         10.13160         4.38992         0.99127
C          8.83022         6.48188         0.77860
C          8.76772         7.84678         0.43413
C         10.07142         5.77658         0.66248
C          9.94676         8.54673         0.07660
C          8.66154        10.67829        -0.01094
C          8.65218        12.08451        -0.23836
C          9.91165         9.96324        -0.14102
C          9.83488        12.80041        -0.49706
C          8.53545        14.94139        -0.58214
C          8.53740        16.40172        -0.63957
C          9.79711        14.23244        -0.64550
C          9.78682        17.10159        -0.70022
C          8.61540        19.24639        -0.45800
C          9.80902        18.54180        -0.63459
C         11.41632         2.26140         1.14399
C         11.35633         3.66771         0.78531
C         12.66332         1.57895         1.06574
C         12.48418         4.32171         0.28118
C         11.23661         6.44895         0.21037
C         11.18633         7.84518        -0.04596
C         12.46701         5.72421         0.03033
C         12.37890         8.55497        -0.38971
C         11.11118        10.66565        -0.39848
C         11.09424        12.10521        -0.56789
C         12.33957         9.95111        -0.49318
C         12.27902        12.81343        -0.85865
C         11.00403        14.94749        -0.80885
C         11.00255        16.38620        -0.81494
C         12.24286        14.24619        -0.97249
C         12.24272        17.08733        -0.85778
C         11.05977        19.22724        -0.74580
C         12.25945        18.53645        -0.85936
C         13.80895         2.19433         0.55857
C         13.67163         3.51162        -0.16951
C         15.05953         1.55030         0.54918
C         14.94883         4.30503        -0.24945
C         13.64298         6.40322        -0.38033
C         13.62499         7.81810        -0.58490
C         14.89838         5.69650        -0.51320
C         14.77452         8.47436        -1.03957
C         13.65360        10.69354        -0.53483
C         13.54575        12.12605        -0.99074
C         14.68095         9.91981        -1.33204
C         14.69677        12.78435        -1.37199
C         13.44727        14.97342        -1.13211
C         13.45132        16.37011        -0.97316
C         14.69927        14.26977        -1.61076
C         14.74476        17.09847        -0.70471
C         13.50750        19.22558        -1.06300
C         14.71890        18.55980        -1.07721
C         16.23374         2.20715         0.13101
C         16.18861         3.63544        -0.19635
C         17.44973         1.51167         0.01468
C         17.37508         4.33484        -0.48096
C         16.08196         6.38954        -0.88335
C         16.02875         7.79596        -1.23921
C         17.33252         5.69325        -0.90232
C         17.16155         8.44989        -1.73766
C         15.86163        10.63706        -1.89724
C         15.94499        12.09259        -1.62748
C         17.09610         9.85201        -2.34240
C         17.15982        12.75609        -1.70960
C         15.96860        14.88563        -1.01133
C         15.94818        16.37021        -1.21128
C         17.22179        14.20382        -1.53487
C         17.25618        17.06655        -1.06056
C         15.95842        19.22319        -1.30153
C         17.18389        18.55603        -1.31127
C         18.65140         2.15681        -0.33679
C         18.70751         3.66696        -0.27910
C         19.82980         1.43769        -0.52889
C         19.79921         4.28067        -1.10153
C         18.51115         6.34134        -1.37420
C         18.34633         7.60391        -2.17482
C         19.75116         5.62900        -1.45997
C         19.65453         8.39436        -2.37235
C         18.38621        10.62898        -2.13560
C         18.39643        12.01409        -1.96808
C         19.64804         9.91977        -2.39642
C         19.63327        12.73801        -2.08507
C         18.36031        14.90670        -1.79471
C         18.33131        16.41582        -1.92858
C         19.59676        14.22797        -2.34807
C         19.66017        17.08649        -1.68169
C         18.41617        19.22707        -1.44153
C         19.64245        18.52811        -1.49310
C         21.03169         2.06899        -0.94195
C         20.94279         3.43704        -1.57797
C         22.24222         1.39947        -0.94408
C         22.24131         4.19783        -1.56420
C         20.97225         6.31301        -1.87923
C         20.95904         7.72227        -2.14496
C         22.20707         5.60725        -1.79893
C         22.14215         8.45729        -2.31431
C         20.92600        10.64100        -2.25204
C         20.85807        12.05161        -2.21012
C         22.18011         9.91658        -2.33546
C         22.10617        12.84024        -2.32875
C         20.87517        14.95246        -1.95857
C         20.84091        16.37941        -1.75146
C         22.08494        14.27459        -1.95378
C         22.14583        17.13543        -1.85501
C         20.86497        19.20949        -1.27925
C         22.08776        18.52508        -1.26576
C         23.47050         2.06435        -1.26644
C         23.44889         3.49914        -1.51415
C         24.67795         1.37835        -1.25507
C         24.69216         4.19940        -1.66007
C         23.44233         6.29728        -1.98960
C         23.40961         7.70571        -2.41446
C         24.66774         5.62177        -1.88219
C         24.74109         8.44803        -2.52781
C         23.40671        10.60610        -2.28019
C         23.41357        12.08908        -2.28416
C         24.75456         9.97301        -2.64745
C         24.59882        12.81372        -1.77802
C         23.32900        14.93704        -1.61716
C         23.33640        16.32758        -1.41675
C         24.55839        14.18084        -1.47411
C         24.47908        16.98606        -0.90241
C         23.26367        19.14411        -0.82626
C         24.46227        18.41899        -0.62599
C         25.92516         2.05593        -1.42416
C         25.91001         3.48922        -1.60354
C         27.13940         1.36706        -1.36411
C         27.15572         4.19734        -1.63132
C         25.91075         6.36099        -1.88231
C         25.93496         7.73627        -2.07020
C         27.14651         5.62686        -1.63616
C         27.25099         8.48396        -2.01307
C         25.94854        10.64151        -1.97647
C         25.89385        12.12139        -1.86643
C         27.12199         9.96402        -1.68441
C         27.14621        12.87982        -1.49336
C         25.72972        14.86202        -0.94666
C         25.62925        16.23150        -0.59605
C         26.98796        14.18260        -0.80355
C         26.69360        16.87369         0.19515
C         25.60636        19.06588        -0.12460
C         26.76211        18.35494         0.26580
C         28.39844         2.04428        -1.45222
C         28.38131         3.50012        -1.53925
C         29.60425         1.36398        -1.40879
C         29.59746         4.22304        -1.39891
C         28.32522         6.32119        -1.35610
C         28.20284         7.78711        -1.04259
C         29.55519         5.63532        -1.21071
C         29.52121         8.49271        -0.92796
C         28.30903        10.62500        -1.21368
C         28.46690        12.11738        -1.39687
C         29.49917         9.90814        -0.89197
C         29.47551        12.73745        -0.46742
C         28.08186        14.75636        -0.13548
C         27.92378        16.07624         0.51322
C         29.35233        14.08189        -0.04506
C         29.12895        16.82039         1.01064
C         27.92843        18.99786         0.69455
C         29.13029        18.30576         1.02665
C         30.90580         2.07301        -1.67799
C         30.84538         3.53249        -1.28478
C         32.12333         1.34975        -1.16732
C         31.98565         4.22629        -0.91537
C         30.75556         6.34911        -0.89058
C         30.71889         7.77873        -0.74333
C         31.97315         5.65352        -0.73700
C         31.92291         8.47623        -0.41273
C         30.69543        10.59198        -0.45835
C         30.64957        12.01465        -0.20625
C         31.86341         9.87246        -0.17685
C         31.81833        12.69642         0.25488
C         30.52142        14.74318         0.45545
C         30.44428        16.11836         0.99212
C         31.75337        14.10153         0.46094
C         31.68461        16.89723         1.17186
C         30.31305        18.96967         1.33588
C         31.58351        18.30259         1.47460
C         33.25197         2.01191        -0.72133
C         33.19241         3.47748        -0.50627
C         34.49545         1.35621        -0.50025
C         34.45928         4.23418        -0.28358
C         33.18980         6.38912        -0.50426
C         33.16322         7.76443        -0.33965
C         34.51500         5.68752        -0.69886
C         34.45618         8.55593        -0.34265
C         32.98706        10.49480         0.61280
C         33.01811        11.99748         0.54569
C         34.34988         9.88957         0.36009
C         34.16299        12.67124         1.01276
C         33.04133        14.87225         0.56798
C         32.90315        16.24021         1.18220
C         34.18624        14.07121         1.13371
C         34.08985        16.91636         1.59962
C         32.75956        18.99903         1.77110
C         34.01662        18.33250         1.86344
C         35.71175         2.06101        -0.27113
C         35.73006         3.49033        -0.21994
C         36.94545         1.37335        -0.13207
C         36.91274         4.20663         0.02298
C         35.69736         6.38969        -0.06817
C         35.66176         7.76905         0.11945
C         36.88885         5.65073         0.17334
C         36.81842         8.46419         0.57751
C         35.45656        10.51628         0.86026
C         35.31441        11.85231         1.55573
C         36.75410         9.86308         0.88634
C         36.60396        12.63769         1.65185
C         35.33390        14.75483         1.62387
C         35.29659        16.19880         1.79198
C         36.52968        14.03138         1.87176
C         36.48431        16.90822         2.14878
C         35.20141        19.02370         2.17237
C         36.43820        18.34579         2.27989
C         38.14324         2.06802         0.10222
C         38.13407         3.49606         0.20920
C         39.39250         1.37449         0.26378
C         39.33218         4.20297         0.52660
C         38.07210         6.33904         0.54876
C         38.03684         7.74925         0.75838
C         39.30946         5.62188         0.70531
C         39.23046         8.45808         1.11411
C         37.91048        10.55911         1.30363
C         37.84460        11.95922         1.64664
C         39.17539         9.86874         1.34362
C         39.07130        12.69277         1.89250
C         37.70592        14.72738         2.50993
C         37.70603        16.22451         2.34384
C         39.03129        14.07990         2.19809
C         38.89871        16.93918         2.56329
C         37.63153        19.04633         2.56610
C         38.85539        18.37374         2.68537
C         40.54788         2.05615         0.53590
C         40.54884         3.48241         0.68736
C         41.72953         4.19677         1.00271
C         40.50429         6.31531         1.03012
C         40.46763         7.75527         1.22119
C         41.70610         5.57018         1.16625
C         41.63271         8.49601         1.51487
C         40.37209        10.58526         1.61736
C         40.32555        12.02390         1.82565
C         41.58744         9.86981         1.69240
C         41.50448        12.78373         1.99352
C         40.21772        14.81544         2.38373
C         40.16414        16.25732         2.66070
C         41.45483        14.14427         2.24310
C         41.30488        16.99707         2.94562
C         40.06395        19.08352         2.96998
C         41.24988        18.40330         3.11380
O         33.59773         3.92102         0.85544
O         19.63476         9.09181        -3.64949
O         26.83288        16.17084         1.49127
O          4.86157        13.06409         2.35950
O          5.77063        15.53923        -1.72923
O         26.70375        12.87487        -2.88821
O         14.69790        10.28673        -2.75185
O         22.86866        12.62774        -3.56173
O         29.63608        16.19818         2.23957
O         24.10641         7.86797        -3.72139
O         34.94494        11.53315         2.95501
H         34.83228        12.38658         3.42725
O         20.65953         3.16855        -3.00536
H         21.44530         2.71425        -3.37768
O          3.10185        16.32324        -1.46343
H          3.84162        15.87918        -1.95044
O         29.12163        12.22966        -2.70666
H         28.39209        12.28216        -3.37171
O          4.41478        18.75686        -1.82356
H          3.67473        18.11001        -1.94658
O          6.87084        12.41533        -1.78956
H          7.38339        12.98895        -2.39914
O         15.93159        14.61658         0.43524
H         16.76114        15.01109         0.79639
O         14.88179        17.08744         0.78273
H         14.90997        16.12967         1.03413
O         31.05210         2.06259        -3.15600
H         30.27714         2.53808        -3.52540
O         27.56073         7.88967         0.26955
H         28.15711         7.47719         0.92936
O         19.07233         3.97137         1.13229
H         18.37388         3.57688         1.69789
O         13.37114         3.14350        -1.56955
H         12.54857         2.60900        -1.55698
O         24.93142        10.27454        -4.06136
H         24.33627         9.65999        -4.55179
O         16.97883         9.67090        -3.78825
H         16.01150         9.60346        -3.97361
O         17.98530        16.68758        -3.31370
H         18.53133        16.07379        -3.86411
O         33.41889        15.13448        -0.84108
H         34.28288        15.59938        -0.82661
O         34.70436         8.83634        -1.77342
H         35.50031         9.40767        -1.82771
O         14.15555        10.72152         0.83998
H         13.51150        11.22060         1.38506
O          4.25769        10.76710         3.36374
H          4.81630        11.55552         3.56057
O         27.83066         8.41117        -3.33875
H         27.22754         8.87593        -3.95808
O         17.65149        16.86663         0.34433
H         16.92341        17.26791         0.87957
O         17.98911         7.12390        -3.51091
H         17.99186         7.93224        -4.08436
O         37.50975        14.51421         3.96587
H         37.63918        13.55655         4.13661
O          6.99828         8.21599        -1.10016
H          7.55331         8.76548        -1.69456
O         22.34652        17.34368        -3.30099
H         21.53159        17.76213        -3.65211
O         32.67422        10.16147         2.01261
H         33.40216        10.54251         2.56856
O         19.50483        14.38875        -3.81760
H         18.93695        13.66586        -4.16161
O         14.79079        14.49630        -3.04422
H         14.02946        14.05253        -3.47269
O         34.76130         5.69699        -2.13911
H         34.76311         6.64021        -2.42181
O          7.08743         4.12871         3.95903
H          6.39791         3.73208         4.53324
H          0.96148         1.73631         3.67743
H          0.78988         4.15024         3.22536
H          3.15166         0.55648         3.48663
H          0.70089         6.03947         2.88800
H          0.60907         8.43439         2.41560
H          0.57227        10.18743         1.43391
H          0.49204        12.62273         1.11570
H          0.59899        14.64305         1.88855
H          0.68390        17.12049         1.80040
H          1.83414        19.17508         1.33332
H          5.50231         0.56402         2.84467
H          3.78594        20.42018         0.51743
H          7.90192         0.55376         2.32356
H          6.21673        20.38970        -0.22724
H         10.31006         0.55718         1.88405
H          8.63725        20.34309        -0.37692
H         12.73483         0.55974         1.47577
H         11.06079        20.32741        -0.74646
H         15.12958         0.50936         0.90114
H         13.47981        20.31202        -1.23986
H         17.45104         0.41814         0.14246
H         15.94411        20.31056        -1.48025
H         19.83385         0.35113        -0.34639
H         18.43379        20.32812        -1.44295
H         22.28680         0.35500        -0.59898
H         20.83911        20.27162        -0.99040
H         24.68339         0.29442        -1.06645
H         23.23212        20.20491        -0.53271
H         27.13371         0.27395        -1.23822
H         25.58807        20.15980        -0.00591
H         29.60540         0.26501        -1.34536
H         27.93862        20.09834         0.72388
H         32.16984         0.26257        -1.33792
H         30.29902        20.06770         1.41558
H         34.53657         0.26058        -0.59865
H         32.71911        20.08232         1.95948
H         36.96015         0.27478        -0.19188
H         35.16986        20.11150         2.33432
H         39.40359         0.27900         0.16696
H         37.59707        20.13813         2.69762
H         41.49674         1.51330         0.65731
H         42.67406         3.64684         1.12389
H         42.64438         6.08373         1.41514
H         42.60388         7.99091         1.59912
H         42.52528        10.39643         1.91232
H         42.48815        12.30252         1.91581
H         42.39871        14.69558         2.34703
H         42.28149        16.50370         3.04210
H         40.02777        20.17699         3.07881
H         42.17597        18.94905         3.34261
