         661
 CSIRO Nanostructure Databank - Neutral Graphene Oxide Data Set
C          6.04197        31.56117         0.32692
C          5.98015        32.89436         0.11408
C          8.51832        27.26367         0.02798
C          8.45529        28.63193        -0.11393
C          7.27127        29.40546         0.15685
C          8.45255        31.52664        -0.28455
C          7.23154        30.78125         0.02497
C          8.42887        32.97245        -0.37449
C          7.09499        33.64312        -0.57713
C          8.31308        35.85104        -0.27328
C          7.12092        35.12033        -0.30957
C          8.32386        37.27606        -0.23782
C         10.83018        22.98008         0.52237
C         10.96092        24.34306         0.03893
C          9.75511        25.13472         0.02261
C         10.96332        27.20356        -0.58273
C          9.71763        26.49405        -0.22522
C         10.97621        28.67594        -0.39717
C          9.64656        29.35989        -0.68856
C         10.92549        31.54862        -0.64208
C          9.63294        30.83502        -0.41013
C         10.89091        33.02396        -0.29641
C          9.61146        33.71996        -0.37943
C         10.78472        35.90210        -0.15512
C          9.58165        35.15270        -0.27317
C         10.77735        37.29719        -0.09598
C          9.52718        38.01924        -0.16750
C         10.67908        40.22138         0.19036
C          9.52337        39.43419        -0.22263
C         10.80625        41.65153        -0.03043
C         13.33713        18.72793         1.59808
C         13.30075        20.15307         1.05711
C         12.03745        20.74159         0.95951
C         13.61611        22.97985         0.07315
C         11.78592        21.99754         0.30590
C         13.46666        24.37387         0.19088
C         12.20862        24.99851        -0.11839
C         13.47321        27.20703        -0.00508
C         12.27524        26.44269        -0.42289
C         13.50687        28.69631        -0.28597
C         12.13204        29.35306        -0.19930
C         13.37687        31.58787        -0.04253
C         12.04316        30.82426         0.13513
C         13.24897        33.00279         0.56190
C         12.05150        33.70302        -0.04806
C         13.35520        35.89041         0.12482
C         12.07680        35.17011        -0.15683
C         13.21188        37.31094         0.62024
C         12.09239        38.05236        -0.15611
C         13.27822        40.21265         0.43495
C         12.00653        39.45887         0.38994
C         13.26369        41.61175         0.34295
C         12.03482        42.32740         0.04570
C         13.33643        44.40622        -0.35058
C         12.10789        43.71379        -0.27117
C         13.39072        45.79845        -0.68703
C         15.76562        14.53632         0.38330
C         15.79993        15.85056         0.82180
C         14.61259        16.60275         1.10820
C         15.83215        18.73463         1.25430
C         14.62018        17.97531         1.30208
C         15.78814        20.12371         1.10320
C         14.56429        20.82737         0.90014
C         15.78327        23.02411         1.09122
C         14.66185        22.26293         0.67956
C         15.77550        24.43558         1.04622
C         14.59061        25.12285         0.64807
C         15.67232        27.31965         1.15995
C         14.54176        26.56275         0.57682
C         15.73489        28.76812         0.97599
C         14.58629        29.44406         0.49002
C         15.59230        31.58476         1.11874
C         14.52934        30.84099         0.54993
C         15.70358        33.02410         0.94590
C         14.56796        33.74678         0.55439
C         15.79058        35.90665         0.69050
C         14.58851        35.15449         0.48465
C         15.74863        37.34927         0.73286
C         14.52526        38.07308         0.62426
C         15.69788        40.23630         1.12881
C         14.48809        39.47708         0.63384
C         15.73137        41.67068         0.65488
C         14.51656        42.33380         0.34360
C         15.83373        44.36844        -0.16157
C         14.53830        43.69558        -0.04004
C         15.87539        45.81507        -0.57900
C         14.58789        46.52488        -0.76202
C         15.88884        48.59468        -1.16287
C         14.65298        47.89443        -1.08692
C         15.93667        49.93549        -1.60936
C         18.07927        10.66422        -1.77843
C         18.10205        11.94394        -1.13724
C         16.91831        12.58377        -0.68282
C         18.22986        14.43134         0.23287
C         16.95585        13.83191        -0.03596
C         18.30975        15.66785         0.95820
C         17.11357        16.54967         0.89595
C         18.35712        18.82983         1.50373
C         17.14148        18.03187         1.12990
C         18.33257        20.20544         1.24386
C         17.05933        20.91035         0.84517
C         18.26687        23.05921         1.29987
C         17.00467        22.27138         1.54457
C         18.20929        24.49114         1.38328
C         17.00493        25.16352         1.35307
C         18.19490        27.43898         1.69098
C         16.95217        26.62492         1.59189
C         18.16448        28.82596         1.76755
C         16.84816        29.46725         1.53058
C         18.45166        31.93379         1.85790
C         16.60329        30.83251         1.74962
C         18.33028        33.09109         1.14467
C         17.03562        33.70080         0.64010
C         18.26204        35.91538         0.80927
C         17.02120        35.21193         0.79465
C         18.23825        37.35901         0.80108
C         16.99634        38.06827         0.80234
C         18.19933        40.19565         0.91648
C         16.99010        39.48695         0.89701
C         18.18870        41.67088         1.12148
C         16.94732        42.40524         0.76260
C         18.17315        44.63633         0.89131
C         17.01164        43.75951         0.45976
C         18.25666        45.99301         0.19584
C         17.10669        46.60287        -0.32579
C         18.33275        48.70075        -0.69950
C         17.11585        47.95856        -0.74061
C         18.33471        50.02973        -1.24140
C         17.14771        50.63701        -1.68739
C         18.26442        52.93848        -1.74069
C         17.19826        52.00617        -2.34354
C         18.43885        54.22265        -2.52547
C         20.44268         6.62047        -3.36236
C         20.41689         7.99859        -3.10146
C         19.24582         8.66712        -2.67428
C         20.51272        10.76749        -2.25851
C         19.23080        10.02337        -2.26088
C         20.59655        12.06961        -1.48370
C         19.35615        12.59214        -0.88609
C         20.74017        14.51406        -0.05646
C         19.42044        13.78415        -0.17098
C         20.77188        15.48570         1.09871
C         19.52778        16.03079         1.52148
C         20.80448        18.96475         1.84561
C         19.57266        18.27853         1.95553
C         20.76298        20.31900         1.46360
C         19.52640        20.96278         1.28939
C         20.70987        23.16402         0.99178
C         19.47810        22.41327         1.18229
C         20.73012        24.51179         1.18758
C         19.48602        25.20185         1.62180
C         20.75187        27.43352         1.67702
C         19.47011        26.69285         1.78549
C         20.68104        28.86439         1.89071
C         19.46570        29.57537         1.89465
C         20.80463        31.70588         1.59925
C         19.58389        31.03449         1.82099
C         20.82535        33.10564         1.27344
C         19.59561        33.73911         0.65915
C         20.73211        35.95152         0.97906
C         19.51640        35.23640         0.84868
C         20.72016        37.37788         0.88586
C         19.46477        38.08467         0.77735
C         20.65140        40.26906         0.51551
C         19.42245        39.50694         0.77445
C         20.71001        41.70813         0.69544
C         19.48109        42.43697         1.02113
C         20.68037        44.57899         0.73896
C         19.49288        43.89893         0.81639
C         20.63634        46.08493         1.02245
C         19.45646        46.74762         0.31311
C         20.69895        48.91395         0.15418
C         19.49122        48.08505        -0.11096
C         20.78758        50.22986        -0.55158
C         19.59749        50.78273        -1.35640
C         20.75073        52.97114        -1.45106
C         19.59597        52.23567        -1.57328
C         20.68689        54.47316        -1.50280
C         19.58370        54.96672        -2.41568
C         20.89690        57.01201        -2.83879
C         19.72214        56.27879        -2.97738
C         20.99088        58.34982        -3.34833
C         22.85155         3.76283        -3.83516
C         21.63611         4.50273        -3.77312
C         22.90288         6.61019        -3.91683
C         21.62852         5.89482        -3.68174
C         22.99308         8.05033        -3.50584
C         21.69365         8.76034        -3.14918
C         23.00660        10.52707        -1.92716
C         21.75696        10.02608        -2.44023
C         23.07231        11.87796        -1.31871
C         21.90527        12.50671        -0.96612
C         23.24128        14.34668         0.16772
C         21.93035        13.57719         0.09293
C         23.24491        15.58265         0.82392
C         22.01128        16.00538         1.44949
C         23.23582        18.76440         1.33814
C         22.09390        18.26680         1.90347
C         23.19722        20.17953         0.86257
C         22.05490        21.08128         1.34264
C         23.20632        23.16925         0.53414
C         21.89776        22.37040         0.48578
C         23.23433        24.59072         0.94139
C         21.92478        25.35756         0.81858
C         23.26675        27.38283         1.69950
C         21.92386        26.73198         1.46195
C         23.16128        28.88184         1.36863
C         22.01533        29.55764         2.14012
C         23.25061        31.68474         1.74929
C         22.04348        31.02421         1.78810
C         23.35713        33.17147         1.49574
C         22.00366        33.83986         1.35593
C         23.15648        36.00149         1.54666
C         21.97577        35.26025         1.21978
C         23.13149        37.42306         1.39282
C         21.95539        38.07450         0.98408
C         23.18168        40.30218         0.84788
C         22.00462        39.49594         0.61549
C         23.16112        41.67673         0.63335
C         21.91233        42.40382         0.57058
C         23.17174        44.49836         0.50434
C         21.93740        43.84798         0.62701
C         23.24036        45.97606         0.54187
C         22.00168        46.76695         0.83532
C         23.29556        48.87036         0.15724
C         22.00619        48.24887         0.57387
C         23.51098        50.22121         0.24475
C         21.75167        51.23802        -0.15535
C         23.23193        53.10457        -0.82805
C         21.94834        52.41292        -0.85790
C         23.24346        54.46259        -1.28518
C         22.04025        55.11722        -1.71284
C         23.31782        57.14632        -2.26812
C         22.08467        56.40848        -2.24920
C         23.35560        58.47910        -2.76259
C         22.16492        59.07115        -3.30527
C         23.47319        61.20938        -3.60899
C         22.20489        60.46164        -3.89916
C         24.08422         4.36383        -3.84387
C         25.46556         6.52669        -3.71908
C         24.20150         5.81667        -3.98952
C         25.49246         7.85326        -3.28673
C         24.26839         8.55602        -2.99674
C         25.62956        10.35722        -1.73017
C         24.29261         9.70817        -2.11120
C         25.52068        11.90415        -1.80218
C         24.35792        12.48059        -1.01278
C         25.73156        14.34800        -0.05879
C         24.42635        13.68962        -0.32334
C         25.74674        15.77386         0.43592
C         24.47496        16.43079         0.94459
C         25.73321        18.71497         0.76886
C         24.49963        17.95484         1.17078
C         25.72851        20.18332         1.12769
C         24.48146        20.89944         0.62579
C         25.73390        23.10570         1.04989
C         24.50640        22.40877         0.61128
C         25.72311        24.52090         1.12630
C         24.44562        25.22571         1.07852
C         25.73862        27.42917         1.28537
C         24.44048        26.72972         0.94642
C         25.71773        28.79962         1.48166
C         24.49654        29.56891         1.59675
C         25.73659        31.69222         2.03177
C         24.48334        30.93700         1.80168
C         25.72039        33.14642         2.41213
C         24.31870        33.88742         2.50487
C         25.31759        36.25777         2.61765
C         24.28916        35.39609         2.17603
C         25.56433        37.54483         2.11775
C         24.32387        38.22191         1.72858
C         25.67420        40.35666         1.26385
C         24.36646        39.69579         1.47233
C         25.65081        41.64510         0.77849
C         24.41048        42.38137         0.62746
C         25.68145        44.45840         0.17950
C         24.39422        43.76900         0.45336
C         25.69165        45.91799        -0.12694
C         24.42419        46.63315        -0.00757
C         25.72342        48.75867        -0.65302
C         24.39557        48.04228        -0.36190
C         25.74427        50.23690        -0.63911
C         24.59606        50.96247        -0.36669
C         25.69139        53.11582        -0.83510
C         24.47554        52.41075        -0.62864
C         25.70910        54.50034        -1.09638
C         24.48314        55.17356        -1.36704
C         25.75327        57.24914        -1.83041
C         24.51004        56.52844        -1.80438
C         25.74501        58.60935        -2.24303
C         24.57909        59.21747        -2.70296
C         24.57189        60.61931        -3.10059
C         26.72505         8.58110        -3.14749
C         27.91892        10.67343        -2.71361
C         26.78094         9.86614        -2.59443
C         27.99991        11.97783        -2.12034
C         26.85589        12.52103        -1.49518
C         28.20590        14.57106        -0.88435
C         26.95927        13.72911        -0.69048
C         28.05483        16.05444        -0.73522
C         26.85175        16.66304        -0.08209
C         28.10885        18.83531         0.03451
C         26.90246        18.10804         0.30345
C         28.09079        20.34385        -0.00302
C         26.95349        20.96896         0.75417
C         28.23724        23.04178         1.09389
C         26.94464        22.33891         0.95631
C         28.22926        24.54015         1.28546
C         26.94613        25.26981         1.21363
C         28.24444        27.38044         1.30786
C         26.98933        26.69153         1.23763
C         28.28538        28.82199         1.37409
C         26.98742        29.55143         1.31426
C         28.26543        31.77148         1.47511
C         26.95843        31.03836         1.45105
C         28.24879        33.23963         1.70030
C         26.99767        33.89285         2.17447
C         28.18498        36.05061         1.96172
C         27.17261        35.15903         2.62633
C         28.19773        37.53193         2.33122
C         26.83534        38.29952         2.24914
C         28.13210        40.26594         1.36793
C         26.91582        39.67249         1.63470
C         28.19221        41.57359         0.65008
C         26.90139        42.32257         0.28224
C         28.19589        44.54962         0.52679
C         26.90788        43.79095         0.77209
C         28.16906        45.99618         0.31394
C         26.96731        46.67467        -0.02567
C         28.20189        48.77572        -0.29959
C         26.99303        48.04299        -0.36021
C         28.32209        50.13771        -0.95805
C         26.99726        50.90310        -1.04045
C         28.24824        53.13070        -0.81239
C         26.97604        52.39669        -1.02011
C         28.19300        54.53709        -0.91442
C         26.97149        55.21562        -1.16954
C         26.95161        56.59039        -1.47440
C         29.19561        12.75010        -2.24188
C         30.37743        14.91230        -1.99699
C         29.27332        14.07208        -1.78107
C         30.42395        16.23974        -1.47689
C         29.29226        16.84516        -0.86544
C         30.51770        18.95654        -0.61906
C         29.29320        18.20900        -0.48031
C         30.59866        20.33028        -0.16635
C         29.42596        21.00595         0.25382
C         30.67150        23.10959         0.64016
C         29.47644        22.37425         0.64511
C         30.69847        24.53691         0.85400
C         29.49730        25.26109         1.07149
C         30.75291        27.35130         1.30479
C         29.50280        26.66947         1.22030
C         30.77064        28.76764         1.83550
C         29.47863        29.50442         1.53009
C         30.76412        31.70382         2.05799
C         29.48860        30.96867         1.79143
C         30.81403        33.22913         2.18735
C         29.50606        33.96327         2.02200
C         30.71115        36.11812         1.95336
C         29.51371        35.34802         2.02879
C         30.67179        37.54094         1.96387
C         29.45656        38.23464         2.04556
C         30.71195        40.27916         1.32712
C         29.42268        39.74555         2.01381
C         30.70454        41.77840         1.17297
C         29.44286        42.39609         0.74414
C         30.65468        44.59377         0.84227
C         29.38012        43.87310         0.66036
C         30.64876        46.09403         0.74209
C         29.36586        46.74957         0.39432
C         30.61906        48.90927         0.50543
C         29.37251        48.13213         0.12771
C         30.57910        50.35748         0.09667
C         29.46138        50.97978        -0.39432
C         29.41358        52.41327        -0.52576
C         31.61184        17.00489        -1.59832
C         33.00430        19.01195        -1.24007
C         31.66941        18.31687        -1.14355
C         33.00151        20.43700        -0.75130
C         31.84000        21.02056        -0.18637
C         33.10613        23.19598         0.01697
C         31.96616        22.35380         0.51308
C         33.12688        24.57942         0.28605
C         31.93180        25.26359         0.76718
C         33.26412        27.35940         1.15269
C         31.95292        26.65013         1.08655
C         33.34585        28.87631         1.41780
C         32.01272        29.56920         1.49861
C         33.19406        31.75611         1.18925
C         32.12661        30.99569         1.98950
C         33.15709        33.20362         1.12963
C         31.87616        33.89098         1.33969
C         33.13778        36.08655         1.19157
C         31.87560        35.40473         1.39661
C         33.23766        37.49653         1.59812
C         31.98428        38.26062         2.00973
C         33.23131        40.43179         1.34846
C         32.00186        39.80395         2.02732
C         33.16036        41.70082         0.87443
C         31.90235        42.45449         0.91533
C         33.13488        44.57586         0.42416
C         31.91351        43.85227         0.68238
C         33.10548        46.00282         0.27637
C         31.92254        46.78098         0.37421
C         31.87441        48.14956         0.14538
C         34.16905        21.17246        -0.90110
C         35.40474        23.30998        -0.82463
C         34.23082        22.56599        -0.56930
C         35.46502        24.66425        -0.49876
C         34.31509        25.30180         0.01048
C         35.51743        27.50525        -0.14053
C         34.43196        26.70010         0.46960
C         35.28498        28.94647        -0.37193
C         34.18073        29.62427         0.37108
C         35.40916        31.82326         0.09168
C         34.24107        31.10375         0.55028
C         35.57532        33.24459         0.58794
C         34.25228        33.94227         0.71521
C         35.41085        36.12360         0.28761
C         34.24602        35.38567         0.71727
C         35.23338        37.54958         0.22542
C         34.36013        38.24666         1.02846
C         35.75004        40.42382         0.84274
C         34.55516        39.69437         1.46663
C         35.63190        41.68351         0.37502
C         34.30261        42.35144         0.12132
C         34.32012        43.85044         0.27292
C         36.79527        25.38816        -0.53610
C         37.75185        27.67607        -1.09217
C         36.64865        26.89005        -0.62466
C         37.69649        29.06081        -1.15007
C         36.36334        29.77774        -1.07192
C         37.69171        31.92539        -0.80017
C         36.48527        31.19338        -0.52280
C         37.76231        33.33860        -0.58395
C         36.65601        34.05619        -0.08763
C         37.92056        36.20072        -0.22639
C         36.64292        35.48562        -0.04655
C         38.20137        37.53941         0.11126
C         37.20714        38.57134         0.20691
C         37.07497        39.73927         0.90400
C         38.84834        29.83630        -1.41747
C         40.05031        31.97699        -1.57706
C         38.84744        31.23349        -1.29671
C         40.11533        33.32526        -1.38752
C         38.97783        34.05716        -0.89066
C         39.05154        35.41484        -0.62535
O         28.33931        32.68012         0.32294
O         29.06477        41.63111        -0.54539
O         12.70931        22.28498        -0.73066
O         26.92525        16.55517        -1.56479
O         32.87920        37.71165         3.02182
O         22.32177         8.91956        -4.49338
O         19.55302        17.00474         2.52599
O         15.91899        26.97532         2.57570
O         18.87069        42.08186         2.34547
O         36.08148        38.26997        -0.61042
O         16.10857        44.78065        -1.59606
O         22.07386        16.97481         2.45510
O         25.78487        44.86231        -1.21568
O         28.34170        23.61538         2.44648
O         11.72412        26.77991        -1.76169
O         23.75205        20.33519        -0.49308
O         27.53788        38.05895         3.52261
O         22.57602        50.99920         0.94820
O         29.95740        31.21151         3.19480
O         33.94230        29.18464        -0.99896
O         24.72567        17.00707         2.26947
O         22.88489        46.47327         1.97606
O         20.51763        12.06595        -2.95950
O         24.87791        48.27153        -1.74942
O         25.87865        32.11345         3.44975
O         20.69694        50.07425        -2.00807
O         23.51204         6.33649        -5.20726
O         21.36304        39.78294        -0.66600
O         24.01972        22.95392        -0.67231
O         12.97534        35.63877        -1.27539
O         28.07547        13.73354         0.28476
O         19.53109        25.79440         2.97948
O         21.16528        48.95554         1.53353
O         26.78488        30.43834         0.13173
O         26.90762        51.64280        -2.31121
O         23.49783         9.48862        -0.87754
O         34.30217        26.70166         1.94898
O         17.28683        17.50313        -0.25969
O         31.42833        34.62148         0.17945
O         26.04859        14.67533         1.34029
O         30.64824        45.46572         2.06616
O         24.05320        39.24138         2.84014
O         17.38771        31.51297         2.66543
O         26.25310        35.70618         3.50388
O         11.17803        39.68811         1.52123
O         17.07574        33.48993        -0.82570
H         18.01969        33.58661        -1.11735
O         30.78438        39.67778         0.00945
H         30.15828        40.17770        -0.57343
O         34.87459        39.62160         2.88015
H         34.07023        39.30088         3.35666
O         25.59063        20.26636         2.58493
H         26.31303        19.74252         2.99151
O         20.33658        46.19982         2.44434
H         21.20357        46.18477         2.91576
O         30.85194        28.62647         3.29998
H         30.73312        29.53772         3.67172
O         33.49268        18.95435        -2.59308
H         32.85193        19.42075        -3.16820
O         24.25760        26.94633        -0.50409
H         25.00542        26.50869        -0.96552
O         20.93809        15.26460        -1.28521
H         20.08892        15.68777        -1.53210
O         30.60077        48.95625         1.98255
H         30.73761        48.04149         2.31382
O         22.27229        29.45692         3.57345
H         21.51670        29.86404         4.04758
O         17.48596        51.79110        -3.73088
H         17.77929        52.63936        -4.12383
O         31.27236        33.45177         3.56499
H         30.59907        33.04074         4.15338
O         37.52448        25.04932         0.66051
H         36.97639        25.30769         1.43115
O         28.72030        49.82211        -2.32000
H         28.29634        50.49861        -2.90036
O         12.78913        37.18755         2.00047
H         12.52524        38.07410         2.33118
O         19.74930        33.51585        -0.80551
H         20.45907        34.11657        -1.11926
O         27.78461        20.67927        -1.42426
H         27.01581        20.13248        -1.69701
O         16.90615        22.01444         2.97229
H         16.94504        22.87653         3.43786
O         13.66711        31.72528        -1.45788
H         13.96058        30.83591        -1.78046
O         15.53207        40.31805         2.59346
H         15.61390        39.40889         2.95231
O         17.80691        53.30570        -0.40834
H         18.50904        53.88332        -0.01984
O         17.12219        21.16773        -0.57884
H         17.18745        20.30528        -1.04088
O         32.05297        40.23503         3.39605
H         31.13710        40.19309         3.76945
O         12.19434        17.99364         1.15746
H         12.18971        17.99213         0.17834
O         11.61152        30.84185         1.52833
H         12.23994        30.29878         2.05033
O         21.77319        25.63444        -0.61559
H         22.57030        26.15249        -0.88961
O         23.60676        27.20125         3.09066
H         23.03770        27.80258         3.62966
O          9.50496        29.26076        -2.14277
H         10.11005        29.93935        -2.53116
O         13.87780        28.84618        -1.70641
H         13.26244        28.26081        -2.21056
O         25.21082        12.18121        -3.20290
H         25.11657        13.14960        -3.32216
O         21.06186        61.22464        -3.48057
H         21.11841        61.35052        -2.51150
O         34.01480        42.12809        -1.30997
H         34.05388        41.16067        -1.46917
O         22.44610        21.54547         2.66174
H         22.56297        20.77052         3.25122
O         32.61305        31.02020         3.37693
H         32.40761        31.92211         3.72829
O         21.75686        12.88359         1.36341
H         22.56612        12.35836         1.53851
O         23.83913        33.72346         3.83761
H         24.37493        33.01290         4.26248
O         25.95466         9.98023        -0.38430
H         25.11371         9.70400         0.05091
O         29.37799        40.23058         3.39152
H         28.68810        39.69226         3.85316
O         34.06948        29.07428         2.65202
H         33.48449        28.80166         3.39097
O         17.89607        44.94319         2.29028
H         18.70533        45.38885         2.65162
O         36.07387        33.10705         1.97875
H         35.45963        32.50187         2.44947
O         24.02873        33.33605         0.21018
H         23.56360        32.78328        -0.45272
O         11.17024        31.46692        -2.07409
H         12.08804        31.81716        -2.22716
O          6.79985        33.52629        -2.02802
H          7.55126        33.93215        -2.51125
O         12.96298        32.93816         1.98504
H         12.10431        32.46481         2.10806
O         26.74914        42.32021        -1.14556
H         27.64934        42.26473        -1.54356
O         20.25713        54.87076        -0.14216
H         20.24845        55.85189        -0.11741
O         22.79816        29.06677        -0.01582
H         23.45411        28.58648        -0.57345
O         12.48060        38.21408        -1.53596
H         12.65157        37.30814        -1.89883
O         21.60757        21.99855        -0.86441
H         22.47352        21.90895        -1.33024
O         27.79883        36.08965         0.54465
H         28.08978        35.25392         0.11665
O         35.95138        29.93818        -2.45977
H         34.96513        29.94224        -2.45674
O         32.33900        21.99477         1.91223
H         31.52646        21.66780         2.35523
O         26.74477        43.73039         2.21141
H         26.93623        44.61123         2.59587
H          5.17823        31.03272         0.75976
H          5.06311        33.45046         0.36081
H          7.62816        26.71369         0.37273
H          6.36484        28.87050         0.48151
H          6.16253        35.66111        -0.34082
H          7.36444        37.81370        -0.25746
H          9.94842        22.74849         1.13909
H          8.81763        24.62980         0.30263
H          8.60076        39.95927        -0.51138
H          9.93943        42.18158        -0.45368
H         13.25336        18.79084         2.72275
H         11.18543        20.18062         1.37628
H         11.17526        44.25495        -0.48963
H         12.44170        46.32294        -0.87518
H         14.79388        14.02974         0.27894
H         13.64323        16.08114         1.09173
H         13.72388        48.43545        -1.32169
H         15.00765        50.42060        -1.94413
H         17.11652        10.13432        -1.84259
H         15.94614        12.10639        -0.87623
H         16.18887        52.50125        -2.24035
H         17.57533        54.63213        -3.07521
H         19.50371         6.05236        -3.27130
H         18.30675         8.09453        -2.62400
H         18.87043        56.71762        -3.51870
H         20.09215        58.81026        -3.78474
H         22.79001         2.66625        -3.78215
H         20.68860         3.95350        -3.67359
H         23.49142        62.27663        -3.87578
H         22.11499        60.36671        -5.01971
H         24.99876         3.76309        -3.73440
H         26.41263         5.98126        -3.84450
H         26.68465        59.18127        -2.22289
H         25.49421        61.19985        -2.94642
H         27.63180         8.15647        -3.60554
H         28.78803        10.29694        -3.27428
H         29.12380        55.12014        -0.84804
H         27.89952        57.14802        -1.50800
H         30.03743        12.32931        -2.81101
H         31.24490        14.53347        -2.55681
H         31.43506        50.97488         0.41461
H         30.33489        52.97661        -0.30803
H         32.50540        16.55074        -2.04972
H         33.74512        18.43162        -0.62402
H         34.04821        46.51650         0.03510
H         32.78813        48.69673        -0.13082
H         35.04776        20.69563        -1.35900
H         36.29214        22.79997        -1.22684
H         36.52232        42.19896        -0.01920
H         35.26341        44.38550         0.08207
H         37.40900        25.02171        -1.39758
H         38.70247        27.16435        -1.30574
H         39.26268        37.81740         0.21525
H         37.88076        40.14830         1.53071
H         39.79217        29.32168        -1.65538
H         40.92572        31.42577        -1.95033
H         41.04126        33.87669        -1.60630
H         40.01038        35.93326        -0.77860
