         283
 CSIRO Nanostructure Databank - Neutral Graphene Oxide Data Set
C        -11.05504         0.66426         0.40369
C         -9.85331         1.48683        -0.03444
C         -8.52290         0.82044         0.38185
C         -7.40240         1.51018        -0.38491
C         -6.17072         0.73509        -0.69189
C         -4.89071         1.51468        -0.66793
C         -3.60583         0.77263        -0.69540
C         -2.33429         1.55848        -0.74621
C         -1.09037         0.79212        -0.42702
C         -0.02131         1.38623         0.48636
C          1.32691         0.81795         0.02902
C          2.57497         1.54744         0.39048
C          3.81857         0.79276         0.44915
C          5.03871         1.41848         0.56590
C          6.27977         0.66719         0.59609
C          7.51636         1.38375         0.21044
C          8.83106         0.73121         0.49775
C         10.02215         1.35697        -0.21324
C         11.30264         0.64938         0.16362
C         -9.83231         2.93648         0.50281
C         -8.57550         3.70349         0.06419
C         -7.33560         2.99876        -0.29695
C         -6.19530         3.67732        -0.64275
C         -4.92169         2.96950        -1.11625
C         -3.63616         3.68889        -0.68198
C         -2.47042         3.01629        -0.47189
C         -1.25015         3.70481         0.04224
C         -0.06649         2.92264         0.54024
C          1.24025         3.63208         0.97106
C          2.53381         2.88464         0.68741
C          3.79093         3.63582         0.95594
C          5.09999         2.87941         0.78324
C          6.29951         3.62975         0.39698
C          7.52585         2.87321         0.05996
C          8.84126         3.57054         0.06395
C          9.99699         2.86911        -0.01526
C         -8.62425         5.05448         0.01446
C         -7.53377         5.92528        -0.55529
C         -6.22244         5.15592        -0.84191
C         -4.91732         5.91809        -0.89845
C         -3.60556         5.17722        -0.80665
C         -2.33420         5.92757        -0.52825
C         -1.12523         5.18102        -0.07517
C          0.01361         5.81873         0.31559
C          1.34856         5.08455         0.37656
C          2.53202         5.84649         1.04532
C          3.81472         5.09779         0.73236
C          4.98687         5.72760         0.32859
C          6.25405         5.00295         0.23810
C          7.46611         5.72556        -0.10962
C          8.82183         5.08996         0.16791
C         -7.26508         7.15574         0.27372
C         -6.20188         8.05060        -0.12011
C         -4.92183         7.42720        -0.69889
C         -3.60997         8.22662        -0.58417
C         -2.36368         7.38760        -0.29521
C         -1.22687         8.03086         0.08477
C          0.00161         7.29052         0.44496
C          1.28771         8.05585         0.53855
C          2.64097         7.37990         0.73892
C          3.64632         7.73645        -0.32979
C          4.95741         7.07312        -0.20554
C          6.10595         7.68540        -0.69320
C          7.37876         7.01509        -0.56495
C         -6.12124         9.43367         0.42146
C         -4.94791        10.04752         0.62578
C         -3.65235         9.27778         0.55591
C         -2.41226        10.13002         0.46003
C         -1.19734         9.49644         0.26289
C          0.05060        10.17565         0.13877
C          1.27974         9.46693         0.05172
C          2.44256        10.01180        -0.47641
C          3.59740         9.16905        -0.83299
C          4.88358         9.76196        -1.22751
C          6.03741         9.04420        -1.19836
C        -11.01740        -0.64360         0.71092
C         -9.71748        -1.40467         0.89623
C         -8.61398        -0.68494         0.14276
C         -7.41505        -1.46095        -0.29720
C         -6.09142        -0.71409        -0.21929
C         -4.91970        -1.44081        -0.87141
C         -3.62550        -0.70370        -0.99067
C         -2.34283        -1.48073        -0.88748
C         -1.08511        -0.73039        -0.55770
C          0.12236        -1.46309         0.04525
C          1.37129        -0.63909        -0.33065
C          2.73697        -1.33096        -0.45246
C          3.77007        -0.68904         0.46413
C          5.03753        -1.44940         0.75031
C          6.30748        -0.68925         0.79731
C          7.57372        -1.43751         1.02429
C          8.86318        -0.66508         1.02238
C         10.17922        -1.43917         1.11726
C         11.35050        -0.61620         0.60606
C         -9.73661        -2.89237         0.62985
C         -8.55914        -3.59966         0.36253
C         -7.38373        -2.90309        -0.01650
C         -6.15997        -3.65884        -0.32156
C         -4.90989        -2.94057        -0.75389
C         -3.59905        -3.62918        -0.60989
C         -2.42251        -2.94507        -0.62421
C         -1.13050        -3.69707        -0.60414
C          0.14598        -2.95200        -0.38668
C          1.43732        -3.49826        -1.00831
C          2.61818        -2.84213        -0.28782
C          3.86485        -3.60346        -0.01032
C          5.13854        -2.82961         0.15311
C          6.44044        -3.55215         0.09212
C          7.64081        -2.91499         0.73921
C          8.96377        -3.57197         0.50297
C         10.10638        -2.85565         0.57252
C         -8.48021        -5.06308         0.50517
C         -7.31072        -5.75244         0.49541
C         -5.99094        -5.02922         0.31785
C         -4.91190        -5.86741        -0.45201
C         -3.58763        -5.10586        -0.38476
C         -2.32805        -5.86351        -0.65229
C         -1.17242        -5.06969        -1.28598
C          0.17168        -5.81453        -1.16671
C          1.45166        -5.04624        -0.98165
C          2.60876        -5.76926        -0.25486
C          3.94270        -5.02273        -0.55514
C          5.18222        -5.76965        -0.12940
C          6.51258        -5.04929        -0.23159
C          7.58796        -5.71490         0.63532
C          8.96867        -5.08434         0.27546
C         -7.23467        -7.22133         0.89840
C         -6.15506        -8.01536         0.10784
C         -4.79310        -7.27889         0.15493
C         -3.69681        -8.15317        -0.62691
C         -2.31881        -7.37720        -0.89288
C         -1.07939        -7.92197        -0.16293
C          0.17763        -7.20942        -0.56082
C          1.44698        -8.00774        -0.69821
C          2.72153        -7.24800        -0.60916
C          3.93395        -7.97439        -0.06176
C          5.23486        -7.22662        -0.43072
C          6.43763        -7.92459         0.14784
C          7.53573        -7.22886         0.54263
C         -5.96158        -9.41815         0.65340
C         -4.77238       -10.05468         0.63148
C         -3.52195        -9.43221         0.18910
C         -2.33182       -10.03877         0.41276
C         -0.97137        -9.39028         0.30004
C          0.06777       -10.14431        -0.57080
C          1.43820        -9.47549        -0.43507
C          2.61140       -10.12769        -0.25751
C          3.95877        -9.45489        -0.51391
C          5.18457       -10.08418         0.11197
C          6.31329        -9.37448         0.33995
O          6.34139        -8.17559        -2.38572
H          5.84599        -9.04632        -2.35460
O         -8.48913        -7.86163         0.70963
H         -8.51711        -8.12848        -0.23679
O          1.22644         0.36419        -1.36423
O          4.14524        -9.57281        -1.95175
H          3.41771        -9.05103        -2.37615
O          3.83772        -8.01750         1.37364
H          3.39921        -7.18776         1.68475
O          9.83727         5.66096        -0.65570
H          9.68906         5.36877        -1.57819
O         -1.11915         3.33264         1.48159
O         -5.87099         8.04674        -1.59400
O         -2.66493        -5.47993         0.70781
O         -2.71174         5.57869        -1.92022
O          1.07284        -5.58903        -2.27772
O         -4.42500        -7.20881         1.53646
H         -3.54582        -6.74989         1.59426
O         -4.21016         1.21217         0.59979
O         -5.62535         5.53840        -2.13266
O         -5.80059        -3.54643        -1.75410
O         -8.26325         1.08856         1.77238
H         -8.61305         0.33452         2.30874
O          0.48896         7.82154         1.74172
O          4.03359        -1.25574         1.78224
O          7.43694        -2.43382         2.10039
O         -4.20980        -8.52357        -1.85899
O          2.24703        -7.66640        -1.90760
O         -8.46851        -1.05461        -1.24954
O          1.18113         3.62616         2.40935
H          0.28203         3.93514         2.66890
O         -1.35161        -1.16081        -1.91568
O         -9.91211         1.57875        -1.47105
H         -9.53404         0.75656        -1.85756
O         -0.43273        -9.42484         1.64220
H         -0.23325        -8.49501         1.90666
O         -6.67357        -8.12263        -1.21968
H         -5.89016        -8.35357        -1.80161
O          7.36974         1.97785        -1.13027
O          4.02935        -4.86188        -1.99904
H          4.24757        -5.73711        -2.39938
O          5.95343        -2.79290        -1.06693
O          4.56683         3.21264         2.13623
O         -5.83354        -0.74031         1.20857
H         -5.16756        -0.03652         1.41827
O        -10.99850         3.62141         0.05862
H        -11.04652         3.49876        -0.91401
O          5.32429        -7.26028        -1.99619
O         10.44216        -1.62854         2.53667
H         10.13826        -0.80930         2.98869
O          3.16910         7.98642        -1.66510
O          2.88427        -3.34862         1.04630
O         -1.47888        -4.88323        -2.67043
H         -1.61685        -5.78290        -3.05504
O         -0.40159        -7.05756         0.79275
O          2.29163         5.76232         2.50863
H         -3.57798         8.32136        -2.55879
O          3.57100         5.68526         3.19113
H          3.73909         4.70812         3.25037
O         -1.29416         1.37215        -1.74718
O          2.32132        -5.81618         1.15637
H          2.25724        -4.89247         1.50965
O          8.92788         0.48884         1.94062
O          9.99475        -5.67899         1.07892
H         10.10194        -5.14545         1.89322
O         -3.41382         8.93617        -1.81349
O         -7.11530         1.02431        -1.73976
O          1.76236         4.94070        -1.00373
H          1.01498         4.61499        -1.54833
O          7.27188        -5.37736         2.00430
H          7.94748        -5.78886         2.58258
O         -5.24229        -6.06117        -1.82346
H         -5.42433        -5.18543        -2.24315
O         -3.58545         8.49328         1.78947
H         -3.34943         9.09619         2.52529
O          9.86192         1.10810        -1.63573
H          8.98703         1.48687        -1.89986
O         -0.41191        -3.78583         0.67295
O          3.26321        -1.08916        -1.76823
H          2.63158        -1.46774        -2.42377
O          3.20329         8.02501         1.90154
H          2.70154         7.69843         2.68363
O         -4.93278         2.93053        -2.55368
H         -5.09964         3.85058        -2.87199
O          1.47710        -3.05855        -2.37317
H          1.17069        -3.81408        -2.93340
O         -2.00618        -7.57547        -2.29161
H         -2.84791        -7.99874        -2.66027
O         -4.45855        -0.98323        -2.16557
O         -5.46396        -4.74966         1.63550
H         -5.21419        -5.61565         2.04519
O         -0.31599         0.95436         1.82171
H          0.22139         1.48858         2.44545
O          6.95172        -5.15644        -1.60336
H          6.32506        -4.62098        -2.14363
O          0.06274        -1.45483         1.47327
H         -0.28934        -2.32814         1.76945
O         -0.32357       -10.11401        -1.94533
H         -0.73120        -9.24281        -2.16213
O         -8.06070         6.41708        -1.81880
H         -7.30588         6.85743        -2.28127
O         -9.38263        -1.28977         2.33041
H        -10.09370        -1.72847         2.84414
H         12.33780        -1.07641         0.77309
H         12.24292         1.16420        -0.09055
H         10.95193         3.41790        -0.04539
H          9.08835         5.36110         1.22940
H          8.29735         7.55711        -0.83507
H          6.98017         9.52170        -1.50406
H          4.90222        10.82560        -1.50903
H          2.46097        11.07388        -0.76717
H          0.04868        11.26756        -0.00024
H         -2.46945        11.21992         0.59991
H         -4.92131        11.09267         0.97173
H         -7.07063         9.97282         0.56114
H         -7.99835         7.49445         1.02011
H         -9.57375         5.55890         0.25222
H         -9.86148         2.90797         1.62310
H        -12.03191         1.17026         0.33934
H        -11.95421        -1.17452         0.94821
H        -10.64458        -3.45044         0.90894
H         -9.41484        -5.60952         0.70729
H         -6.98553        -7.25492         1.99464
H         -6.85824        -9.94689         1.01189
H         -4.70208       -11.08309         1.02215
H         -2.33266       -11.00599         0.94240
H          0.13457       -11.21230        -0.25090
H          2.60642       -11.22092        -0.11780
H          5.17150       -11.16504         0.32112
H          7.19219        -9.88868         0.76092
H          8.38876        -7.77322         0.98084
H          9.19810        -5.31750        -0.79576
H         11.06863        -3.37237         0.42754
