         273
 CSIRO Nanostructure Databank - Neutral Graphene Oxide Data Set
C        -11.07182         0.58179         0.76954
C         -9.89574         1.41943         0.50152
C         -8.85390         0.77259        -0.28753
C         -7.43908         1.10254        -0.00716
C         -6.25688         0.65955        -0.84660
C         -4.99766         1.47591        -0.81785
C         -3.67828         0.72097        -0.78359
C         -2.43047         1.46044        -0.35552
C         -1.50677         0.82626         0.71805
C         -0.16767         1.55127         0.72695
C          1.05843         0.80918         1.16418
C          2.40303         1.36671         0.75493
C          3.72488         0.59972         1.08837
C          5.01590         1.35291         0.81603
C          6.42500         0.84461         0.98534
C          7.37996         1.33132         0.04945
C          8.29393         0.46347        -0.55544
C          9.36067         0.93053        -1.53485
C         10.72150         0.25044        -1.30958
C         -9.81871         2.77714         0.75896
C         -8.74164         3.66477         0.31864
C         -7.65701         3.24900        -0.65524
C         -6.25946         3.68980        -0.12231
C         -4.98371         2.94561        -0.51049
C         -3.80426         3.63012        -0.54450
C         -2.47640         2.94918        -0.40950
C         -1.42743         3.69009         0.41785
C         -0.13983         2.88097         0.47736
C          1.12030         3.61155         0.08585
C          2.40269         2.78988         0.26019
C          3.70221         3.54266         0.12776
C          4.97968         2.84631         0.54214
C          6.26499         3.56263         0.23925
C          7.57504         2.82888         0.01285
C          8.33540         3.28768        -1.21633
C          9.59550         2.46667        -1.41884
C         -8.59568         4.96695         0.70965
C         -7.55327         5.90142         0.09153
C         -6.31011         5.16787        -0.47246
C         -5.03073         5.90754        -0.67315
C         -3.74299         5.11223        -0.71858
C         -2.43958         5.84349        -0.52163
C         -1.23418         5.14952         0.01488
C         -0.09383         5.81867         0.33950
C          1.10317         4.99062         0.79856
C          2.51084         5.92973        -0.19257
C          3.73570         5.03746        -0.07319
C          5.05192         5.76900         0.10813
C          6.34397         5.01731        -0.19703
C          6.81418         5.25751        -1.64462
C          8.04681         4.40995        -1.90736
C         -7.11258         7.02507         1.00552
C         -5.95325         7.75012         0.75337
C         -4.99544         7.31018        -0.20933
C         -3.78533         8.10523        -0.41292
C         -2.46920         7.34816        -0.46927
C         -1.28323         8.07143         0.08217
C         -0.03755         7.31333         0.42909
C          1.27474         8.08112         0.37802
C          2.59771         7.30126         0.49894
C          3.76166         7.93983        -0.23584
C          5.03181         7.21167        -0.27587
C          6.12974         7.65603        -1.18384
C          6.97603         6.76925        -1.78657
C         -5.62110         8.94522         1.54531
C         -4.59615         9.76662         1.24674
C         -3.82181         9.58239        -0.03826
C         -2.44150        10.21893        -0.11486
C         -1.28021         9.53596        -0.19160
C          0.00968        10.18586        -0.64550
C          1.28005         9.46828        -0.21389
C          2.51328         9.95565        -0.85454
C          3.67252         9.19254        -0.90107
C          4.88264         9.73809        -1.51954
C          6.04343         9.04533        -1.62084
C        -11.11300        -0.75251         0.51175
C         -9.86093        -1.48469         0.06099
C         -9.08877        -0.48984        -0.79251
C         -7.19622        -1.59443        -1.33514
C         -6.17542        -0.84267        -0.86422
C         -4.95161        -1.48557        -0.34617
C         -3.66197        -0.76824        -0.61477
C         -2.40771        -1.44235        -0.11728
C         -1.29792        -0.67697         0.50606
C         -0.32094        -1.42708         1.44012
C          0.98221        -0.63433         1.54460
C          2.25763        -1.41789         1.70103
C          3.51974        -0.58734         2.08277
C          4.49893        -1.76174         2.40707
C          6.72553        -0.40537         1.58171
C          7.49301        -1.36257         0.87717
C          8.11138        -0.91114        -0.30564
C         10.00766        -1.96939        -0.43316
C         11.01246        -0.97813        -0.82511
C         -9.92402        -2.89650        -0.52301
C         -8.78829        -3.57503        -0.81300
C         -7.39313        -3.05243        -1.13526
C         -6.36705        -3.67455        -0.15020
C         -5.01972        -2.94412        -0.06773
C         -3.73234        -3.70495        -0.11231
C         -2.46916        -2.92981         0.02832
C         -1.41459        -3.65209         0.90294
C         -0.13576        -2.87828         1.02413
C          1.15391        -3.33893         0.37194
C          2.36067        -2.82484         1.18033
C          3.70476        -3.48931         1.01097
C          4.85269        -2.84907         1.39827
C          6.19849        -3.54563         1.44588
C          7.52554        -2.80657         1.27496
C          8.82964        -3.65833         1.03949
C         10.04248        -2.85173         0.59288
C         -8.42362        -4.81410        -1.63158
C         -7.45345        -5.82446        -1.01251
C         -6.20272        -5.11084        -0.60060
C         -4.94410        -5.84313        -0.34371
C         -3.74229        -5.16397         0.20105
C         -2.58071        -5.84872         0.37696
C         -1.32532        -5.04240         0.31452
C         -0.03666        -5.65833        -0.06634
C          1.23766        -4.86537         0.09654
C          2.50063        -5.63716         0.28074
C          3.67684        -5.02069         1.01013
C          4.98197        -5.62690         0.62130
C          6.19881        -5.09720         1.33542
C          7.44095        -5.72049         0.70898
C          8.49189        -4.82678         0.09967
C         -7.41067        -7.17090        -1.18962
C         -6.21382        -8.00284        -0.81783
C         -4.95101        -7.32770        -0.37778
C         -3.56707        -7.90645        -0.66112
C         -2.59253        -7.37497         0.42540
C         -1.15972        -8.01014         0.32911
C         -0.01881        -7.15414        -0.26054
C          1.29087        -7.85283        -0.30198
C          2.50337        -7.16353         0.31035
C          3.78132        -7.67985        -0.33860
C          5.09697        -6.92036        -0.14049
C          6.17032        -7.85173         0.59220
C          7.44773        -7.04936         0.47277
C         -6.00890        -9.38518        -1.31899
C         -4.81714       -10.03488        -1.18244
C         -3.58348        -9.41207        -0.73248
C         -2.40057       -10.08968        -0.54528
C         -1.15204        -9.41611        -0.26233
C          0.07532       -10.05169        -0.36322
C          1.33536        -9.34798        -0.25567
C          2.56552        -9.95287        -0.34618
C          3.80210        -9.16272        -0.56745
C          5.14033        -9.81052        -0.58980
C          6.23217        -9.19077        -0.11605
O          2.18286        -5.09063        -1.01286
O          1.45203         5.00595         2.02087
O         -5.02909        -1.97161         1.04937
O         -5.80491         1.29075        -2.05643
O         -1.84500         2.18319        -1.47599
O         -5.94807         5.56810        -1.80523
O          4.54004        -2.11723         3.57789
O          8.78039        -1.82783        -1.11630
O          4.41217         0.41643        -0.16699
O          6.99024        -3.08582         2.60547
O         -3.51508        -0.17130        -1.92429
O         -5.20659        -5.23868        -1.67508
O          0.90885         0.41609         2.56630
O          2.36022         1.66432        -0.67386
O         -7.47710        -3.90045        -2.36271
O         -3.04566         7.92351        -1.66739
O          2.02475        -2.56533         2.58397
O         -0.97186         7.76393         1.48113
O         -1.20416        -1.06051        -0.87820
O          0.62483        -7.44615        -1.53770
O          5.28526         6.71374         1.16141
O         -0.74960        -8.31079         1.64645
O         -7.85992         2.96182        -1.81885
O         -5.80523        -7.92766         0.61701
O         -8.31633        -0.93376        -1.85903
O         -2.85540         5.38955        -1.85225
O          5.74230         3.50533         1.61100
O         -0.87141        -5.00849        -1.08759
O         -2.84866        -3.47756        -1.26323
O          3.62125        -8.17145        -1.68971
O          1.32576         9.24850         1.25076
O          3.83017         4.13047        -1.21303
O         -2.20601         0.99234         1.96416
H         -1.68808         0.53227         2.66520
O          0.01615        10.20444        -2.08017
H         -0.84624        10.54314        -2.39686
O          3.43410        -5.28369         2.44075
H          4.29871        -5.18385         2.91521
O          5.78138        -8.11773         1.93674
H          5.95399        -7.31133         2.48200
O          2.85206         7.09184         1.88122
H          2.46188         7.84424         2.37602
O          5.66824        -6.65796        -1.45061
H          5.08794        -7.13399        -2.09813
O          2.06227         6.03641        -1.47885
H          2.33118         5.22470        -1.97644
O          8.90985         0.64360        -2.86682
H          9.48408         1.15749        -3.47538
O          9.15895        -4.28433         2.29015
H          9.36613        -3.58664         2.94533
O          5.81797         4.90109        -2.62673
H          5.83657         3.93250        -2.77377
O          2.48712        -7.63496         1.67331
H          2.86885        -6.94374         2.26920
O         -0.93984        -1.38828         2.76462
H         -0.22409        -1.53741         3.42208
O          6.32294        -0.58773         2.85230
H          6.64251        -1.46996         3.17790
O          1.22189        -2.66212        -0.90459
H          0.57066        -3.08220        -1.51111
O          0.95932         3.80984        -1.33569
H          0.96743         2.91935        -1.75509
O          8.44668         3.09761         1.14641
H          7.86414         3.29541         1.91313
O         -7.18020         1.35581         1.18253
O          7.92244        -4.31622        -1.10557
H          7.42593        -5.03804        -1.55002
O         -9.02824        -1.59870         1.26657
H         -8.45734        -2.40515         1.20665
O         -1.95958         3.77612         1.76427
H         -1.25895         4.13161         2.35280
O         -2.02555        -3.78610         2.21037
H         -1.85432        -2.95126         2.71329
O         -8.21636         6.56123        -1.02112
H         -7.59181         6.52878        -1.78648
O         -3.14251        -7.44777        -1.95872
H         -3.08877        -6.46656        -1.96353
O         -6.97955        -3.64333         1.15887
H         -6.42493        -3.06489         1.73556
O         10.32666         2.86179        -2.57798
H         10.62330         3.78675        -2.45866
O          7.40812         5.58118         0.59531
H          6.98286         6.06437         1.34504
O         -3.14725        -7.76310         1.68407
H         -2.36527        -8.08860         2.21451
O          6.13291        -5.54047         2.74444
H          6.81410        -5.00814         3.22211
O         -6.24130         3.72988         1.32194
H         -6.44518         2.82492         1.66978
O         -4.59808        10.23740        -1.07891
H         -4.31435         9.85338        -1.93665
O          3.30607         0.06450         3.33288
H          3.51848        -0.60110         4.03297
H         12.07228        -1.24961        -0.68714
H         11.58303         0.88452        -1.58185
H         10.22898         2.64688        -0.50116
H          8.67421         4.68654        -2.77140
H          7.68361         7.14622        -2.54261
H          6.90981         9.48899        -2.13315
H          4.82085        10.76123        -1.91855
H          2.48140        10.92846        -1.36496
H          0.04991        11.24697        -0.26113
H         -2.43497        11.30647        -0.29729
H         -4.38474        10.64382         1.87489
H         -6.23798         9.13668         2.43633
H         -7.81561         7.39279         1.76885
H         -9.32771         5.42581         1.39460
H        -10.64098         3.25423         1.31730
H        -11.97234         1.07762         1.16538
H        -12.03018        -1.32442         0.72035
H        -10.89741        -3.41229        -0.56154
H         -9.20023        -5.26382        -2.29090
H         -8.26493        -7.69572        -1.64830
H         -6.87184        -9.92220        -1.74269
H         -4.76038       -11.09357        -1.48238
H         -2.37576       -11.18487        -0.67376
H          0.10416       -11.11020        -0.67188
H          2.64987       -11.05049        -0.33966
H          5.22164       -10.81457        -1.03572
H          7.21233        -9.69138        -0.17005
H          8.32220        -7.50818        -0.01865
H          9.42236        -5.42276        -0.12082
H         10.96745        -2.99121         1.17084
