         618
 CSIRO Nanostructure Databank - Neutral Graphene Oxide Data Set
C         23.68883        69.97183        -2.19873
C         23.66035        71.40568        -2.22223
C         22.69673        72.12068        -2.97414
C         23.69299        74.23018        -2.30346
C         22.71256        73.51646        -2.99181
C         25.86004        65.72306        -1.08824
C         25.80042        67.11924        -1.02320
C         24.73944        67.83440        -1.58593
C         25.73500        69.95759        -0.80634
C         24.70362        69.25664        -1.56018
C         25.55389        71.40329        -0.60873
C         24.61855        72.13371        -1.47210
C         25.78975        74.25972        -0.97697
C         24.67673        73.55119        -1.53978
C         28.46131        61.58792        -0.92678
C         28.24951        62.89791        -0.46228
C         27.17188        63.69527        -0.96297
C         27.81617        65.63521         0.50256
C         26.93627        64.98917        -0.52346
C         27.73098        67.16509         0.64967
C         27.04757        67.83319        -0.55673
C         27.92768        70.01717         0.34459
C         26.83216        69.30388        -0.28072
C         27.92321        71.40470         0.36891
C         26.73333        72.17796        -0.00924
C         28.08458        74.27393        -0.09876
C         26.86039        73.61247        -0.35445
C         30.89921        57.20345        -0.79765
C         30.55242        58.50127        -0.26233
C         29.71529        59.46616        -0.93689
C         30.25508        61.24669         0.71001
C         29.48323        60.75211        -0.39733
C         29.93221        62.51441         1.21019
C         29.08807        63.42332         0.56776
C         30.24508        65.60196         1.48929
C         28.98859        64.84303         1.03241
C         30.27177        67.11435         1.29607
C         29.07569        67.85471         0.84855
C         30.34720        69.94024         1.00486
C         29.11887        69.25027         0.75754
C         30.37021        71.40372         1.10667
C         29.09091        72.18044         0.82282
C         30.44207        74.25170         0.58018
C         29.21010        73.60728         0.43141
C         32.45558        52.56033        -0.53739
C         32.36481        53.86187        -0.00311
C         31.77764        54.97944        -0.60849
C         32.84673        56.95033         0.69596
C         31.79746        56.34584        -0.14422
C         32.85256        58.37782         0.91018
C         31.58110        59.09655         0.79547
C         32.79387        61.29035         1.49064
C         31.48985        60.55127         1.15525
C         32.97357        62.78246         1.89039
C         31.71608        63.60711         1.88660
C         32.82304        65.64172         1.23001
C         31.59224        64.91153         1.47784
C         32.80223        67.08418         1.12948
C         31.57877        67.80428         1.15162
C         32.82018        69.95370         1.00321
C         31.58270        69.22767         1.06952
C         32.84223        71.40525         1.15360
C         31.64579        72.12799         1.04136
C         32.88916        74.23216         0.85013
C         31.65484        73.55620         0.88645
C         35.20941        48.47557         0.17415
C         35.15802        49.76365        -0.64699
C         33.81486        50.46386        -0.73639
C         35.32571        52.71505         0.61922
C         33.44602        51.61772        -0.09896
C         35.33996        54.10624         0.81941
C         34.12496        54.82425         1.03942
C         35.32883        56.93410         1.18267
C         34.04489        56.22268         0.97948
C         35.33567        58.44914         1.19495
C         34.03813        59.14294         1.08449
C         35.25556        61.29744         0.89790
C         34.06156        60.57339         1.15499
C         35.26076        62.75500         0.83960
C         34.07838        63.48575         1.16207
C         35.32048        65.60204         1.01578
C         34.02684        64.89627         1.08922
C         35.30833        67.12144         0.91108
C         34.00778        67.81589         0.88549
C         35.19118        69.85342         0.07609
C         34.00406        69.21429         0.73511
C         35.23517        71.51245         1.88765
C         34.05050        72.14432         1.38966
C         35.36286        74.20238         1.10592
C         34.10516        73.54807         1.10395
C         37.85281        44.33173         0.89575
C         37.74798        45.70158         0.57435
C         36.54617        46.41720         0.66546
C         37.57517        48.42967        -0.41866
C         36.39476        47.77901         0.22381
C         37.61424        49.92148        -0.41667
C         36.38624        50.61682        -0.27987
C         37.67356        52.71849        -0.05756
C         36.43492        51.99626         0.06731
C         37.73984        54.12798         0.17158
C         36.55853        54.85527         0.58847
C         37.81400        56.99614         0.75843
C         36.56412        56.22409         0.80470
C         37.76635        58.46800         0.59319
C         36.56068        59.17200         0.79331
C         37.68444        61.26340         0.24832
C         36.49584        60.58031         0.63074
C         37.61325        62.72392        -0.00828
C         36.41565        63.46249         0.41061
C         37.69656        65.61270         0.32472
C         36.51281        64.88353         0.52965
C         37.72409        67.04360         0.42224
C         36.53807        67.76921         0.46729
C         37.72340        69.82173         1.08943
C         36.60504        69.24238         0.17878
C         37.73475        71.26199         1.62773
C         36.49426        72.07006         1.60327
C         37.82914        74.10587         1.26200
C         36.56189        73.46962         1.26702
C         40.34192        40.12656         1.39382
C         40.32075        41.47731         1.00759
C         39.13054        42.25122         1.12473
C         40.25373        44.25389         0.20310
C         39.07006        43.60914         0.78377
C         40.19679        45.57232        -0.16557
C         39.03879        46.43412         0.28688
C         40.09841        48.46231        -0.82020
C         38.84519        47.67608        -0.55979
C         40.14883        49.85029        -0.22921
C         38.84403        50.59410        -0.39182
C         40.09826        52.72054        -0.57120
C         38.87332        52.01213        -0.34818
C         40.08378        54.12229        -0.55474
C         38.93788        54.82028        -0.09851
C         40.14334        57.06164        -0.31464
C         39.04372        56.25657         0.22870
C         40.15518        58.43683        -0.18037
C         38.94138        59.15856         0.19792
C         40.10116        61.29118        -0.51330
C         38.88450        60.56214         0.03257
C         40.13623        62.70778         0.09625
C         38.87983        63.47378        -0.26624
C         40.22223        65.58338         0.36894
C         38.95636        64.99303        -0.23440
C         40.19160        66.97262         0.66163
C         39.00617        67.74315         0.53196
C         40.22447        69.80321         1.19262
C         39.02012        69.12600         0.87175
C         40.23601        71.22837         1.45176
C         39.02620        71.95700         1.55729
C         40.28025        74.06536         1.52913
C         39.04280        73.39253         1.45953
C         42.76615        35.92329         2.30017
C         42.75788        37.26350         1.84273
C         41.55862        38.00641         1.78200
C         42.76246        39.98624         0.95163
C         41.53431        39.35840         1.37414
C         42.71329        41.34050         0.46677
C         41.52916        42.08866         0.49644
C         42.63516        44.10972        -0.40470
C         41.49192        43.47510         0.04625
C         42.61839        45.48934        -0.93271
C         41.25484        46.16758        -1.08691
C         42.65687        48.41875        -0.79416
C         41.36547        47.70582        -1.02669
C         42.59774        49.88931        -0.75583
C         41.37567        50.59558        -0.68854
C         42.56139        52.72707        -0.95480
C         41.34622        52.00486        -0.78221
C         42.56815        54.17040        -1.08192
C         41.27530        54.86220        -1.02165
C         42.59237        57.05502        -0.91593
C         41.29200        56.37539        -0.92944
C         42.60980        58.45814        -0.68816
C         41.38752        59.15725        -0.44935
C         42.63083        61.25401        -0.35422
C         41.41169        60.55814        -0.33887
C         42.65269        62.68170         0.11738
C         41.41184        63.47882        -0.29174
C         42.70398        65.47217         0.54145
C         41.43189        64.87186         0.31063
C         42.74944        66.84921         1.08428
C         41.40864        67.62907         1.14824
C         42.69476        69.76937         1.28527
C         41.46002        69.09691         1.18059
C         42.71352        71.18859         1.49900
C         41.48054        71.90699         1.56710
C         42.70457        74.01055         1.93950
C         41.50369        73.35255         1.68854
C         45.19510        33.29081         3.36601
C         43.98387        33.88782         2.95324
C         45.22178        35.78640         1.93894
C         43.95680        35.17857         2.39566
C         45.25300        37.22745         1.64427
C         44.00801        37.91560         1.50810
C         45.26192        39.89046         0.73716
C         43.96944        39.24992         1.03434
C         45.26083        41.30513         0.29704
C         43.95222        41.96170        -0.04730
C         45.18272        44.22580        -0.33864
C         43.93559        43.41188        -0.44264
C         45.17034        45.57518        -0.52097
C         43.91578        46.27262        -0.94080
C         45.15820        48.52790        -0.92719
C         43.85400        47.75461        -0.81103
C         45.06613        49.93413        -0.32836
C         43.80072        50.63898        -0.73237
C         45.04643        52.83142        -0.58289
C         43.78571        52.02689        -0.85535
C         45.01372        54.11928        -1.47193
C         43.74545        54.89332        -1.24102
C         45.02765        57.04172        -1.20166
C         43.77831        56.33243        -1.14913
C         45.04599        58.45681        -1.07788
C         43.83813        59.17257        -0.80629
C         45.08849        61.32812        -0.73167
C         43.85744        60.58522        -0.60154
C         45.08047        62.74627        -0.55830
C         43.91098        63.43461        -0.20953
C         45.21346        65.42625         0.45022
C         43.90343        64.80085         0.18844
C         45.23926        66.96114         0.83948
C         43.96184        67.66554         0.94888
C         45.16863        69.81745         1.06670
C         43.94319        69.06492         1.10020
C         45.16765        71.17222         1.42352
C         43.95326        71.85146         1.68166
C         45.13738        74.02599         1.57187
C         43.98646        73.27793         2.19238
C         46.41457        33.90700         3.18136
C         47.85481        35.84823         2.34720
C         46.54002        35.08074         2.32598
C         47.76406        37.28088         1.86616
C         46.50433        37.90481         1.56535
C         47.68239        40.05436         1.27825
C         46.51235        39.30626         1.27480
C         47.63841        41.56204         1.37442
C         46.36610        42.18835         0.78101
C         47.64429        44.34526         0.38266
C         46.36646        43.60276         0.32188
C         47.64334        45.67473         0.09954
C         46.48552        46.32300        -0.63600
C         47.55328        48.51497        -0.26627
C         46.39187        47.81251        -0.41874
C         47.59696        50.02054        -0.20072
C         46.32979        50.69455        -0.62568
C         47.50961        52.75709        -1.18798
C         46.31853        52.05012        -0.89242
C         47.51624        54.17931        -1.33494
C         46.28432        54.90560        -1.34549
C         47.50255        57.04102        -1.37342
C         46.26835        56.31562        -1.31455
C         47.50176        58.47120        -1.35499
C         46.27815        59.18779        -1.18384
C         47.54244        61.30294        -1.18301
C         46.29801        60.60918        -1.04845
C         47.57516        62.72976        -0.74396
C         46.31540        63.55508        -0.89159
C         47.62785        65.57109        -0.02881
C         46.41954        64.86889        -0.13114
C         47.64453        66.98557         0.33067
C         46.46407        67.68204         0.56923
C         47.70238        69.76443         1.16930
C         46.43455        69.19520         0.50911
C         47.69624        71.27141         1.10977
C         46.46474        71.92882         1.68980
C         47.49762        74.10531         0.93285
C         46.34564        73.39511         1.33204
C         48.93746        38.01141         1.77512
C         50.13933        40.15486         1.35305
C         48.94812        39.41382         1.47939
C         50.15471        41.55048         1.03557
C         48.90631        42.26728         0.93827
C         50.13758        44.35576         0.52805
C         48.89228        43.63329         0.67931
C         50.15153        45.75337         0.39736
C         48.83565        46.48680         0.54424
C         50.00556        48.53898        -0.21932
C         48.82351        47.85989        -0.04514
C         50.00156        49.91471        -0.71943
C         48.82869        50.59671        -0.85319
C         49.99294        52.76552        -0.93994
C         48.77887        51.98463        -1.47075
C         50.01442        54.20619        -1.37676
C         48.75401        54.90033        -1.43662
C         49.96207        57.05277        -1.51104
C         48.73275        56.32589        -1.47214
C         49.96029        58.44441        -1.47668
C         48.73671        59.18264        -1.44241
C         50.00512        61.36357        -1.67463
C         48.73752        60.61247        -1.41671
C         50.05941        62.83409        -1.28587
C         48.86708        63.46048        -0.62250
C         50.08308        65.61484        -0.21330
C         48.87824        64.92965        -0.35995
C         50.09083        67.01730         0.05374
C         48.90495        67.70896         0.30779
C         50.09292        69.87624         0.34669
C         48.93830        69.12442         0.58747
C         50.05201        71.33628         0.38438
C         48.79597        71.99506         0.74844
C         49.89460        74.19791         0.44843
C         48.75718        73.46579         0.72339
C         51.35983        42.23884         0.79306
C         52.58214        44.35627         0.30999
C         51.38304        43.63699         0.54167
C         52.63341        45.76293         0.19675
C         51.36895        46.48653         0.30508
C         52.38842        48.74455         0.18839
C         51.26432        47.90250         0.09768
C         52.54399        49.96273        -0.49443
C         51.30646        50.55485        -1.04054
C         52.53920        52.77727        -1.02205
C         51.28903        52.03875        -1.23565
C         52.50263        54.17360        -1.24600
C         51.23304        54.84990        -1.50279
C         52.53497        57.03162        -1.77538
C         51.22790        56.30784        -1.74049
C         52.54765        58.45841        -1.35171
C         51.23799        59.17421        -1.28427
C         52.49460        61.09861        -2.06921
C         51.28074        60.59187        -1.67783
C         52.57968        63.18381        -1.71393
C         51.36262        63.50545        -0.99152
C         52.62305        65.64581        -0.55307
C         51.38304        64.90170        -0.33985
C         52.51202        67.10031        -0.59229
C         51.40832        67.72510         0.23144
C         52.49608        69.93456        -0.22486
C         51.32712        69.21654         0.03047
C         52.43734        71.40143        -0.25055
C         51.16764        72.07196         0.06931
C         52.42691        74.13520         0.66494
C         51.18095        73.58301        -0.02629
C         53.90272        46.36614        -0.17219
C         55.24458        48.57790        -0.44898
C         54.24696        47.69854         0.06948
C         55.08940        49.99012        -0.48642
C         53.79151        50.64530        -0.56003
C         54.94826        52.82240        -0.69245
C         53.75145        52.06983        -0.80624
C         54.87698        54.23293        -0.72336
C         53.71508        54.90144        -1.12441
C         55.01095        57.10053        -1.18832
C         53.86095        56.28110        -1.73990
C         55.02364        58.46816        -1.22057
C         53.82227        59.19924        -1.48139
C         55.01903        61.37599        -1.58972
C         53.81642        60.57925        -1.72011
C         55.06254        62.90823        -1.86670
C         53.82098        63.65303        -1.37110
C         55.05980        65.75630        -0.99358
C         53.82860        65.01594        -0.89540
C         55.05284        67.15444        -0.83130
C         53.78352        67.89128        -0.78506
C         54.98931        69.98789        -0.21452
C         53.77172        69.30569        -0.39632
C         54.98484        71.36897         0.17015
C         53.73962        72.14915         0.02498
C         54.83477        74.06472         1.35571
C         53.61649        73.49077         0.64849
C         56.27571        50.80363        -0.70623
C         57.34725        53.14113        -1.09673
C         56.24248        52.18162        -0.74703
C         58.12342        53.80471        -0.18805
C         55.96540        55.09761        -0.16855
C         57.59284        57.01016        -1.04520
C         56.26882        56.32657        -0.98971
C         57.55626        58.51085        -1.01968
C         56.23484        59.24445        -0.77060
C         57.43686        61.41740        -1.05492
C         56.22714        60.71476        -1.22206
C         57.48904        62.85785        -1.09474
C         56.29787        63.59441        -1.30764
C         57.52276        65.68654        -0.88472
C         56.29529        64.99515        -1.08512
C         57.51276        67.16768        -0.88841
C         56.25151        67.89614        -0.67150
C         57.47018        69.96151        -0.02091
C         56.24494        69.27080        -0.33667
C         57.42502        71.31164         0.44768
C         56.16981        72.01199         0.55344
C         57.32985        74.01818         1.32180
C         56.15049        73.37693         1.02948
C         59.04541        54.95340        -0.40317
C         60.03073        57.14040        -0.61623
C         58.85895        56.30843        -0.63801
C         59.99431        58.52956        -0.73572
C         58.70647        59.21391        -0.83314
C         59.94083        61.42478        -0.66873
C         58.63911        60.68496        -0.49480
C         59.92980        62.80520        -0.60859
C         58.70808        63.55083        -0.77858
C         59.98588        65.69297        -0.49798
C         58.73122        64.97597        -0.73864
C         60.00724        67.10407        -0.37239
C         58.79695        67.90861        -0.61680
C         59.91220        69.91383         0.32852
C         58.72735        69.28900        -0.09255
C         59.87040        71.27975         0.77007
C         58.62672        71.98034         0.79787
C         59.80067        74.00981         1.52626
C         58.60402        73.35510         1.21439
C         61.19194        59.29457        -0.68492
C         62.42393        61.42289        -0.66189
C         61.19505        60.69671        -0.65812
C         62.46225        62.80910        -0.47976
C         61.17295        63.50239        -0.11038
C         62.42052        65.67145        -0.20369
C         61.19391        64.98469        -0.33203
C         62.41735        67.06846        -0.05942
C         61.20121        67.77825        -0.05696
C         62.32458        69.79334         0.78564
C         61.17924        69.19767         0.30702
C         62.27761        71.15195         1.33053
C         61.04693        71.93288         1.19917
C         62.28461        74.01210         1.68889
C         61.04839        73.32299         1.51274
C         63.66500        63.53780        -0.42105
C         64.89566        65.63764        -0.02647
C         63.69066        64.93864        -0.20647
C         64.94548        67.04587         0.16148
C         63.69082        67.86660        -0.02691
C         64.86511        69.85438         0.87185
C         63.60848        69.01143         0.98296
C         64.84435        71.22591         1.12130
C         63.59068        71.89917         1.52897
C         64.74382        74.08376         1.44521
C         63.53436        73.37600         1.55842
C         66.11502        67.75363         0.38578
C         67.28316        69.94077         0.54830
C         66.10181        69.18837         0.58960
C         67.26770        71.34765         0.73416
C         66.03079        72.00234         1.01849
C         67.19222        74.15651         1.11093
C         65.98663        73.42718         1.20800
C         68.45405        72.13003         0.65641
C         68.40391        73.50655         0.84328
O         43.38166        45.68367        -2.18266
O         53.19501        72.04250        -1.34139
O         62.92638        71.25419         2.66877
O         43.94973        42.34897        -1.46541
O         30.05388        66.45432         2.63841
O         52.49164        62.30037        -2.79262
O         30.59270        62.94364         2.37539
O         35.53064        66.42673         2.20582
O         42.01396        67.01451         2.33215
O         45.86430        43.21698         1.69903
O         45.37197        65.88654         1.82198
O         53.41974        48.33260         1.02996
O         52.82115        67.65948        -1.89584
O         40.63989        48.34180        -2.14975
O         45.56761        40.27960        -0.68659
O         40.97964        55.69482        -2.20572
O         58.30260        67.75893        -1.99492
O         34.21330        52.01047         1.03332
O         37.91766        47.69672        -1.67221
O         51.91620        58.74387        -0.04078
O         38.08743        63.03978        -1.42076
O         35.01238        70.70371        -0.79243
O         45.97412        34.94911         0.99310
O         29.49119        71.91019         2.19592
O         30.40600        58.41971         1.21217
O         45.04981        53.05985         0.77604
O         48.28106        62.76940         0.54440
O         57.03320        56.29464        -2.23204
O         37.60949        70.08103         2.52181
O         35.46137        57.67612         2.44608
O         27.77942        65.02621         1.83989
O         51.36633        51.13676        -2.39866
O         31.97475        60.65977         2.53071
O         25.54992        71.85102         0.78428
O         51.54855        63.68340         0.44658
O         51.83500        56.78100        -3.03709
O         32.96665        54.08777         1.25496
O         49.85089        62.43985        -2.66624
O         38.84701        56.51441         1.67305
O         56.22934        55.07078         1.03200
O         58.43551        60.70301         0.98807
H         58.41212        61.64588         1.26376
O         46.63052        71.87524         3.15186
H         46.79554        70.92287         3.36644
O         40.30137        49.66695         1.21407
H         40.39283        50.55140         1.62703
O         54.24517        55.99598        -3.11255
H         53.41269        55.99424        -3.64404
O         39.47439        46.98146         1.58161
H         39.50919        46.24114         2.22379
O         40.03325        62.58668         1.53054
H         40.93956        62.47410         1.91089
O         45.37639        48.70807        -2.35300
H         45.69377        47.84769        -2.71383
O         63.80072        68.51577        -1.33052
H         63.83740        67.81536        -2.01494
O         41.44543        63.65193        -1.72261
H         40.68928        64.23745        -1.97169
O         35.38214        49.37787        -2.03719
H         36.13875        48.75419        -2.09705
O         39.05272        65.39768        -1.64796
H         38.35729        64.88708        -2.12491
O         42.65358        62.60108         1.58736
H         43.49692        62.18822         1.87087
O         28.01091        67.72562        -1.65279
H         27.58422        68.07737        -2.46233
O         33.41755        62.71202         3.28030
H         32.76662        62.14457         3.75239
O         55.14396        63.05445        -3.31347
H         54.27856        62.75936        -3.67882
O         58.17266        53.32643         1.08881
H         58.59113        53.98275         1.67900
O         54.92537        75.47360         1.13798
H         54.99229        75.63244         0.17432
O         48.63484        46.68695         1.99202
H         48.73541        45.81303         2.42636
O         51.28732        73.95050        -1.43659
H         52.03437        73.41573        -1.80494
O         46.50634        69.59463        -0.88996
H         45.69597        69.28435        -1.34443
O         56.10183        59.28772         0.68255
H         56.89009        59.77324         1.04109
O         63.55768        68.46375         2.32277
H         63.42542        69.22739         2.93175
O         61.07457        63.35991         1.36229
H         61.22152        62.41160         1.56945
O         45.01244        49.82414         1.12857
H         44.86121        50.74074         1.46299
O         47.73493        50.35252         1.22203
H         46.90585        50.04466         1.66015
O         46.23896        63.87220        -2.31807
H         45.31086        64.10210        -2.53439
O         37.17120        69.43252        -1.14545
H         36.61499        70.11946        -1.58869
O         44.20678        73.21614         3.64369
H         45.07611        72.75798         3.77152
O         39.97259        61.33039        -1.95493
H         39.16096        61.85296        -2.16850
O         51.83190        67.49793         1.62229
H         51.04247        67.58102         2.19747
O         49.85376        52.78042         0.50505
H         50.52857        53.38140         0.88369
O         26.91779        67.45133         1.80030
H         27.16952        66.80179         2.49717
O         44.97426        53.57591        -2.82570
H         44.89453        54.32263        -3.45546
O         47.63175        69.37593         2.58295
H         48.52612        69.48262         2.97002
O         48.39180        35.83631         3.68266
H         47.96909        36.55234         4.19930
O         48.85435        51.87353        -2.90687
H         49.72344        51.45234        -3.12550
O         40.77721        45.80854        -2.40081
H         41.50153        46.00736        -3.03493
O         35.07548        70.39655         2.63387
H         35.96045        70.06958         2.94480
O         46.82618        46.20775        -2.07330
H         46.67279        45.27883        -2.35203
O         47.58826        41.77926         2.82191
H         47.07986        42.61494         2.95977
H         23.71724        75.32783        -2.35907
H         25.86523        75.34086        -1.16942
H         28.17962        75.33615        -0.37068
H         30.50791        75.32467         0.34471
H         32.90999        75.31003         0.63325
H         35.41064        75.28705         0.93605
H         37.87533        75.19564         1.12051
H         40.29852        75.16469         1.50593
H         42.70320        75.10527         2.05424
H         45.03167        75.10163         1.36040
H         47.42744        75.19425         0.78780
H         49.82631        75.29661         0.41981
H         52.36977        75.13440         1.12523
H         54.66992        73.93088         2.46382
H         57.30043        75.05582         1.68681
H         59.77937        75.07531         1.79931
H         62.25932        75.10654         1.80200
H         64.73058        75.18192         1.51651
H         67.17453        75.24707         1.24919
H         22.91061        69.42040        -2.74711
H         21.93546        71.56833        -3.54303
H         21.95526        74.05967        -3.57438
H         25.09042        65.17465        -1.65325
H         23.89795        67.28598        -2.03562
H         27.80819        61.18964        -1.71625
H         26.51328        63.26564        -1.73232
H         30.33389        56.82798        -1.66325
H         29.24922        59.18583        -1.89175
H         31.91746        52.33964        -1.47017
H         31.16791        54.79335        -1.50627
H         34.28498        48.04976         0.59181
H         33.20399        50.14167        -1.59288
H         36.94999        43.78692         1.21259
H         35.64457        45.88558         1.00859
H         39.41241        39.65660         1.74861
H         38.22548        41.76064         1.51407
H         41.81841        35.45982         2.61319
H         40.61650        37.52010         2.07642
H         45.14623        32.35995         3.94934
H         43.03242        33.40068         3.21119
H         47.30738        33.55082         3.71441
H         48.59001        35.29136         1.70817
H         49.89427        37.51075         1.98702
H         51.10274        39.63496         1.46672
H         52.31086        41.68628         0.83092
H         53.52523        43.79092         0.25596
H         54.62075        45.71791        -0.69863
H         56.19156        48.15573        -0.82167
H         57.23709        50.27626        -0.79861
H         57.30810        53.53318        -2.12536
H         60.08685        54.69328        -0.12886
H         61.00660        56.65524        -0.45732
H         62.15365        58.76075        -0.65159
H         63.36441        60.86766        -0.80005
H         64.61958        63.00008        -0.53227
H         65.83797        65.06834         0.00789
H         67.08357        67.23021         0.40399
H         68.24051        69.43886         0.34260
H         69.41245        71.63457         0.44518
H         69.32831        74.09753         0.77732
