         320
 CSIRO Nanostructure Databank - Neutral Graphene Oxide Data Set
C         30.36479        31.54268        -0.14540
C         30.35163        32.77240         0.03481
C         30.35012        35.96532         0.42659
C         30.29506        37.18153         0.62979
C         30.31517        40.31381         0.55385
C         30.16281        41.56036         0.55997
C         32.79454        28.78722         0.25153
C         31.68113        29.29663         0.02152
C         32.73805        31.42178        -0.37987
C         31.53912        30.71958        -0.19164
C         32.74585        32.91515        -0.39866
C         31.44344        33.71730        -0.13790
C         32.73001        35.87920         0.25153
C         31.49440        35.02025         0.62333
C         32.73323        37.22604         0.36925
C         31.51622        38.02675         0.98390
C         32.64597        40.19311         0.43298
C         31.48125        39.47123         0.48853
C         32.66343        41.69353         0.29200
C         31.17543        42.41228         1.22530
C         32.61963        44.39419         0.85473
C         31.50746        43.81900         0.90257
C         35.53877        27.45921         1.04806
C         35.29127        28.61359         0.25285
C         34.11750        29.24500        -0.00287
C         35.34260        31.43665        -0.16744
C         34.07965        30.67729        -0.58596
C         35.31700        32.95142        -0.49081
C         34.00425        33.61907         0.11051
C         35.21172        35.85652         0.45497
C         33.99956        35.15689        -0.21481
C         35.25697        37.34745         0.13922
C         33.92582        38.06472        -0.04216
C         35.15888        40.29084         0.18709
C         33.96397        39.46140         0.64830
C         35.15208        41.64687         0.25978
C         33.93441        42.36330         0.83333
C         35.09437        44.62639         0.39756
C         33.94013        43.89932         0.61565
C         35.30848        46.01999         0.28906
C         37.79320        27.68228         1.79114
C         36.40711        27.19532         1.90606
C         37.89739        28.61320         0.51478
C         36.63776        29.21247        -0.21725
C         37.79521        31.55927        -0.41057
C         36.52984        30.77696        -0.08184
C         37.81724        33.03903        -0.02196
C         36.54414        33.74729        -0.03232
C         37.73180        35.92068         0.21829
C         36.49404        35.10719         0.16753
C         37.67850        37.31987        -0.38062
C         36.40367        38.06139         0.00637
C         37.69006        40.24919        -0.01081
C         36.35315        39.54019        -0.38744
C         37.64867        41.74848        -0.37195
C         36.44501        42.45039         0.32574
C         37.72135        44.67387         0.22748
C         36.36918        43.92427        -0.14492
C         37.68715        46.15744        -0.19540
C         36.40371        46.61509        -0.02384
C         39.37094        25.06883        -0.34744
C         38.50203        25.91443        -0.07575
C         40.18953        27.36617         0.86068
C         38.60794        27.17448         0.64408
C         40.30903        28.87917         0.89204
C         39.03077        29.55107         0.52982
C         40.27469        31.57716         0.26600
C         39.01674        30.82542         0.06652
C         40.29183        33.04576         0.35280
C         38.99954        33.72979         0.10871
C         40.25045        35.88044        -0.41665
C         39.02260        35.20245         0.13254
C         40.19115        37.35382        -0.88184
C         39.03566        38.10380        -0.17671
C         40.21089        40.33788        -0.50646
C         38.90817        39.56220        -0.69198
C         40.23131        41.72285        -0.41261
C         38.98002        42.47649         0.01589
C         40.23220        44.70991        -0.10066
C         38.94844        43.95671        -0.43424
C         40.24076        46.06592        -0.20326
C         38.95884        46.86175        -0.57077
C         40.13884        48.66865         0.56184
C         39.08477        48.25569         0.02271
C         42.02140        24.64542        -0.31771
C         40.75961        25.36838        -0.83022
C         42.40029        27.38241        -0.63384
C         41.09121        26.74608        -0.20658
C         42.79221        28.62097         0.22846
C         41.61041        29.50509         0.55519
C         42.78559        31.57729        -0.39450
C         41.54135        30.86415        -0.02942
C         42.75640        33.08471        -0.55443
C         41.65219        33.75902         0.33864
C         42.81915        35.97994         0.07951
C         41.55259        35.18961        -0.17593
C         42.83400        37.40332        -0.44516
C         41.54297        38.10187        -0.76185
C         42.74657        40.35256        -0.21011
C         41.48332        39.61157        -0.68611
C         42.51617        41.67779         0.36516
C         41.44234        42.44641        -0.08710
C         42.79527        44.68324        -0.48333
C         41.48309        43.92211         0.26418
C         42.84441        46.10385         0.14784
C         41.55272        46.79304        -0.32738
C         42.78021        48.68492         0.78067
C         41.49874        48.46198         0.69277
C         43.18930        25.08026        -0.35381
C         45.10581        27.07876        -0.36007
C         43.73429        26.43191        -0.54802
C         45.22793        28.60078        -0.07237
C         43.98961        29.38411        -0.45041
C         45.31795        31.55939        -0.61476
C         44.07409        30.87141        -0.00680
C         45.32203        33.05430        -0.31209
C         44.09383        33.74603        -0.27002
C         45.35781        35.97812        -0.17381
C         44.05833        35.20369        -0.35649
C         45.34107        37.41328         0.11889
C         44.04959        38.14490         0.07220
C         45.33186        40.44146         0.28347
C         44.01652        39.63440         0.16461
C         45.44020        41.77342        -0.56022
C         44.29588        42.68732        -0.97050
C         45.40120        44.64292         0.01717
C         44.13140        43.93480        -0.38928
C         45.22696        46.33810        -0.81644
C         44.08013        46.98970        -0.13729
C         43.98118        48.26886         0.34863
C         47.52077        27.22346         0.11123
C         46.46954        26.59439        -0.03013
C         47.91213        28.64819        -0.15617
C         46.54085        29.37026        -0.01456
C         47.87057        31.54628        -0.42731
C         46.56900        30.82729        -0.18511
C         47.82554        32.98216         0.14453
C         46.54046        33.72636        -0.13472
C         47.82519        35.93098         0.40113
C         46.53904        35.15728         0.18680
C         47.79273        37.39315         0.35541
C         46.55896        38.07963         0.32378
C         47.92217        40.26647         0.09153
C         46.59913        39.55946         0.09084
C         47.88759        41.79560         0.41045
C         46.74764        42.47938        -0.38719
C         47.97654        44.75693        -0.22144
C         46.71070        43.99947        -0.62465
C         47.72822        46.12176        -0.41877
C         46.63202        46.72522        -0.61697
C         50.30952        28.89132         0.81219
C         48.91053        29.41283         0.73620
C         50.29908        31.52797         0.06347
C         49.11727        30.85751         0.12679
C         50.35100        32.97910        -0.35151
C         49.06248        33.77336        -0.32209
C         50.34811        36.02071         0.19456
C         49.09078        35.26287        -0.05193
C         50.31842        37.27105         0.73673
C         49.03167        38.08202         0.90247
C         50.32780        40.28015         1.00152
C         49.24766        39.49317         0.27520
C         50.42976        41.81252         0.79294
C         49.21433        42.48320         0.06090
C         50.55929        44.44490         0.12286
C         49.12896        44.10132         0.49129
C         51.38705        29.49089         0.82872
C         52.66482        31.78743         0.68281
C         51.72701        30.74602         0.12335
C         52.66100        32.98433         0.38362
C         51.63398        33.80760        -0.26983
C         52.73044        36.06928         0.32324
C         51.64333        35.33978        -0.39058
C         52.71249        37.22598         0.75471
C         51.58260        37.93596         1.41036
C         52.72080        40.36278         1.22245
C         51.56577        39.47258         1.39312
C         52.83589        41.55651         0.90553
C         51.85492        42.33312         0.07476
C         51.62074        43.81045         0.15949
O         48.90678        34.70376        -1.41342
O         47.08849        35.38217         1.56541
O         35.31516        33.02617        -1.89393
O         41.14787        29.45018         1.94057
O         44.60423        26.70823        -1.66561
O         44.80262        35.71388        -1.50766
O         41.97653        30.92158        -1.42649
O         40.93457        35.15495        -1.48498
O         51.21886        33.18603        -1.52400
O         38.55377        35.76938         1.44372
O         32.03915        33.64486        -1.44623
O         42.46915        37.63898        -1.81301
O         50.61069        39.93930         2.38994
O         42.40209        40.24880        -1.62610
O         43.79180        38.84103         1.37358
O         45.78697        28.91287         1.21663
O         47.32657        39.79374        -1.15074
O         40.23426        32.22525         1.59727
O         46.41455        41.79785        -1.63269
O         31.74904        38.08166         2.31863
O         39.41546        38.18861         1.21526
H         39.27362        37.29123         1.62991
O         47.73826        41.95634         1.81650
H         46.85280        41.61906         2.10148
O         49.80767        39.29595        -1.03487
H         49.06173        39.17445        -1.66766
O         45.55408        44.87600         1.37090
H         44.67922        45.14437         1.74807
O         46.59001        44.18147        -2.05500
H         47.17912        43.52562        -2.49092
O         45.23665        31.50067        -2.07023
H         46.13540        31.73847        -2.40848
O         42.88231        45.93992         1.58092
H         42.90311        46.83463         1.98724
O         49.31693        42.43145        -1.35337
H         50.26293        42.34476        -1.63018
O         48.33984        29.55377         2.01545
H         48.96460        30.02633         2.60212
O         32.48393        42.08831        -1.03839
H         31.74852        41.57434        -1.43322
O         39.14328        42.49927         1.46237
H         38.96908        41.57803         1.78225
O         31.57856        34.70255         2.00804
H         31.48140        35.54016         2.51321
O         35.01640        35.79609         1.90380
H         35.80592        36.17962         2.34123
O         34.12588        35.35608        -1.62718
H         34.55149        34.53294        -2.02343
O         41.70464        47.29752        -1.57325
H         40.82769        47.41628        -2.01071
O         33.93635        42.20183         2.27117
H         34.86000        42.36019         2.57931
O         48.36492        28.78293        -1.50617
H         47.95332        28.08372        -2.05678
O         36.15821        44.04704        -1.54746
H         36.69531        43.36808        -2.03033
O         37.82400        31.63720        -1.86437
H         36.99055        32.11076        -2.13791
O         42.91817        36.18984         1.50818
H         42.79631        35.31986         1.96688
O         47.94903        32.82426         1.57938
H         47.62251        33.65789         2.00169
O         42.17911        33.73001         1.67545
H         41.68139        33.02364         2.16785
O         40.59643        26.77978         2.09902
H         40.06216        27.18721         2.82105
O         44.13734        30.97230         1.42029
H         44.77956        30.28653         1.74561
O         51.66689        35.68736        -1.76105
H         51.26461        34.94618        -2.27137
O         41.56418        43.98060         1.71462
H         40.70710        43.60376         2.03508
O         50.51415        42.38056         2.09671
H         50.74391        41.65645         2.73069
O         37.81244        40.18460         1.43140
H         38.25622        39.32935         1.68259
O         38.83679        43.99469        -1.86354
H         38.90720        44.92934        -2.16693
O         37.50455        37.08569        -1.79125
H         37.24960        37.94734        -2.20713
O         36.75330        28.93713        -1.60906
H         35.99267        29.37216        -2.06584
O         40.78738        25.37400        -2.22150
H         41.39513        26.09157        -2.52777
O         38.44271        28.05694         2.96822
H         37.79070        28.43714         3.59137
O         51.94112        41.92155        -1.26523
H         52.76266        42.27435        -1.66556
O         43.25841        42.04634         1.42677
H         42.85650        42.87622         1.81330
O         48.87088        44.32571         1.84497
H         49.47924        43.75381         2.37625
O         31.22364        42.17738         2.56807
H         32.04148        42.56396         2.95142
O         38.98531        46.98430        -2.02276
H         38.22635        47.54462        -2.29741
O         51.52830        37.53653         2.77721
H         50.93109        38.16324         3.24533
O         48.74082        38.25859         2.30990
H         48.41992        37.40200         2.66537
O         33.79114        38.27683        -1.48150
H         33.75340        37.37491        -1.88967
O         34.03080        33.37102         1.51446
H         34.39516        34.15720         1.99162
O         34.15340        39.23929         2.05839
H         33.30350        38.82147         2.40256
O         36.16728        39.55429        -1.82444
H         35.25628        39.18172        -1.98433
O         34.27566        30.55000        -2.02225
H         34.53669        31.46523        -2.33621
O         36.63269        42.50456         1.77479
H         36.87686        41.58752         2.06199
O         42.38926        44.81540        -1.83880
H         42.63849        43.99911        -2.32562
O         43.28216        28.09002         1.46743
H         42.55707        28.16614         2.13515
O         42.20231        27.66211        -2.02795
H         43.10051        27.72033        -2.44566
O         38.65324        39.54829        -2.11026
H         39.28275        38.91251        -2.54120
O         45.37767        40.84553         1.67236
H         44.89758        40.15525         2.19138
O         37.45343        41.85776        -1.78028
H         37.82551        41.06137        -2.23731
O         39.93260        37.31595        -2.29396
H         40.61139        36.71670        -2.68697
O         44.91405        46.13369        -2.14673
H         45.63387        45.62127        -2.58356
O         43.56881        42.33880        -2.05989
H         43.79894        41.44607        -2.39206
O         37.92171        44.77255         1.63784
H         37.64637        43.91885         2.05710
O         43.97789        29.33753        -1.87814
H         43.23802        29.90546        -2.20419
O         48.04025        31.64705        -1.87378
H         48.28827        30.74434        -2.18846
O         42.49527        33.36754        -1.93534
H         43.10937        32.83022        -2.48023
O         52.09495        30.48267        -1.19293
H         52.13889        31.33737        -1.68061
