         261
 CSIRO Nanostructure Databank - Neutral Graphene Oxide Data Set
C        -11.29419         0.82781        -0.62567
C        -10.22331         1.58025         0.14997
C         -8.90292         0.83867        -0.04491
C         -7.59146         1.54343         0.00430
C         -6.44742         0.81737         0.68365
C         -5.21434         1.55859         1.07476
C         -3.93385         0.78832         1.36958
C         -2.62395         1.51535         1.29663
C         -1.30991         0.73132         1.30041
C         -0.13452         1.30090         0.54050
C          1.16369         0.56073         0.45799
C          2.46720         1.33779         0.36219
C          3.77697         0.61376         0.25608
C          5.05036         1.37259        -0.07741
C          6.33350         0.59176        -0.08331
C          7.60888         1.39593        -0.02522
C          8.89273         0.64818        -0.12839
C         10.12374         1.33659         0.43027
C         11.36363         0.56302         0.02237
C        -10.10435         3.05912        -0.13526
C         -8.92076         3.75358        -0.01498
C         -7.60543         3.04664         0.00370
C         -6.33584         3.78845         0.26875
C         -5.04544         2.94301         0.43234
C         -3.85441         3.76629         0.90374
C         -2.57191         3.01386         1.01831
C         -1.49027         3.45093         0.05073
C         -0.14001         2.77071         0.19155
C          1.13290         3.53166         0.12867
C          2.45280         2.82456         0.12216
C          3.72475         3.58939         0.27102
C          5.06548         2.85064         0.21124
C          6.31494         3.53159         0.71885
C          7.61153         2.79287         0.53719
C          8.83072         3.56082         0.13597
C         10.15850         2.81617        -0.03117
C         -8.82255         5.16792        -0.19954
C         -7.60852         5.89343        -0.06384
C         -6.45685         5.26183         0.73363
C         -5.12237         6.03088         0.61506
C         -3.85347         5.23287         0.51377
C         -2.66529         5.79618        -0.21394
C         -1.39948         4.97664        -0.28731
C         -0.06521         5.72232        -0.25757
C          1.08752         5.00209         0.40314
C          2.33338         5.72599         0.80759
C          3.66918         4.97707         0.84792
C          4.97290         5.71461         0.96913
C          6.31862         5.04744         0.71003
C          7.52202         5.71018         0.04229
C          8.70768         4.85079        -0.26133
C         -7.49165         7.13542        -0.67590
C         -6.34596         8.03420        -0.50231
C         -5.13002         7.49115         0.20356
C         -3.74769         8.20943         0.10919
C         -2.62520         7.28738        -0.41594
C         -1.31033         7.97295        -0.59234
C         -0.01361         7.22777        -0.38012
C          1.12235         8.01637         0.26384
C          2.32415         7.25326         0.78967
C          3.67646         7.86916         0.87809
C          4.84489         7.19150         0.94922
C          6.49673         7.96008        -0.43174
C          7.32180         6.93510        -0.78240
C         -6.17644         9.23849        -1.34390
C         -4.99650         9.89446        -1.43487
C         -3.77404         9.45064        -0.78178
C         -2.57951        10.07588        -0.95590
C         -1.35800         9.46933        -0.30338
C         -0.05516        10.15130        -0.55211
C          1.24651         9.54514        -0.07296
C          2.39607         9.76019        -1.05795
C          3.67080         9.58896        -0.62350
C          4.86626         9.65442        -1.46771
C          6.05402         8.98951        -1.37595
C        -11.28409        -0.51596        -0.73093
C        -10.19658        -1.36053        -0.16475
C         -8.94743        -0.63200         0.23994
C         -7.66271        -1.40044         0.22666
C         -6.38842        -0.68268         0.53640
C         -5.20453        -1.45276         1.07905
C         -3.92469        -0.73735         1.39667
C         -2.58184        -1.47891         1.12564
C         -1.30582        -0.74759         1.59184
C          0.02668        -1.51396         1.57224
C          1.27993        -0.79499         1.11836
C          2.50439        -1.57936         0.72649
C          3.74350        -0.89789         0.21678
C          5.06040        -1.65045         0.26363
C          6.34963        -0.88100         0.15250
C          7.66098        -1.41621         0.74618
C          8.80355        -0.89550        -0.23605
C         10.13863        -1.58926         0.01851
C         11.34554        -0.77804        -0.13232
C        -10.05636        -2.79728        -0.51282
C         -8.96384        -3.53627        -0.19367
C         -7.78931        -2.87637         0.46436
C         -6.52531        -3.63229         0.73478
C         -5.18266        -2.92068         0.72335
C         -3.90249        -3.67985         0.93475
C         -2.63764        -2.99316         1.43561
C         -1.34365        -3.78659         1.60904
C          0.01565        -3.03844         1.92782
C          1.29443        -3.74620         1.42232
C          2.58675        -2.95335         1.32470
C          3.86781        -3.72128         1.27384
C          5.10868        -3.05964         0.73938
C          6.41573        -3.70757         1.10365
C          7.70491        -2.93353         0.95677
C          8.95986        -3.69790         0.63596
C         10.17261        -2.93027         0.23047
C         -8.90850        -4.99136        -0.66730
C         -7.71378        -5.80584        -0.17230
C         -6.54849        -5.11638         0.47743
C         -5.22755        -5.84442         0.57532
C         -3.97471        -5.17525         1.05065
C         -2.66975        -5.94775         1.04600
C         -1.31098        -5.25804         1.13774
C         -0.03621        -5.81744         0.50072
C          1.28349        -5.08003         0.73722
C          2.58574        -5.59666         0.16267
C          3.81113        -5.20413         0.96772
C          5.10610        -5.91952         0.71544
C          6.42809        -5.21482         0.97519
C          7.68797        -5.85970         0.50877
C          8.83221        -5.14667         0.34620
C         -7.52741        -7.18252        -0.74087
C         -6.31286        -7.79971        -0.76555
C         -5.13999        -6.89564        -0.52353
C         -3.64607        -8.35619         0.38364
C         -2.76438        -7.42346         0.94067
C         -1.25530        -7.61205        -1.06782
C         -0.01037        -6.86592        -0.59799
C          1.28806        -7.46063        -1.07315
C          2.60199        -6.85508        -0.63481
C          3.81284        -7.73589        -0.55522
C          5.12111        -7.04265        -0.28280
C          6.39839        -7.75857        -0.57063
C          7.64874        -7.35111         0.21120
C         -6.05450        -9.09918        -1.37915
C         -4.85587        -9.73322        -1.42718
C         -3.61548        -9.37078        -0.69212
C         -2.29276        -9.87538        -1.16178
C         -1.17164        -9.10036        -1.20767
C          0.14774        -9.62247        -1.56254
C          1.28878        -8.87978        -1.54604
C          2.59535        -9.46459        -2.06401
C          3.81679        -9.05939        -1.24088
C          5.13982        -9.67691        -1.54290
C          6.30686        -9.12071        -1.16841
O          5.89484        -6.71347        -1.47708
O         -4.21830         5.94002         1.74492
O          6.42176        -0.36210        -1.19742
O         -4.86703        -5.86245         1.98254
O          0.95725        -0.85372         2.50686
O         -2.24960         5.16700        -1.45135
O         -2.26055        -3.50816         2.72382
O         -4.79020        -1.23171         2.45401
O          2.82836        -5.55149        -1.26685
O          2.78564        -1.49387        -0.70288
O          8.61496        -3.30212         2.03312
O          5.15747         2.32862        -1.16189
O         -6.08814         8.25112         0.95078
O         -2.11261         7.61908        -1.74258
O          5.05594        -2.77185        -0.68625
O         -4.33325        -3.25609        -0.41879
O          7.33153         5.72721         1.49246
O          0.49804         3.08279        -1.10251
O          1.52287        -4.95254         2.17233
O         -6.71493        -1.08036        -0.83669
O         -3.11274         3.70453         2.16382
O         -3.39640         8.58083         1.42139
O          3.27245         1.06813         1.56167
O          1.36812         5.24505         1.80684
O          3.41061        -3.13837         2.51768
O          1.27934         7.77835         1.68571
O         -8.12813         1.05724        -1.26432
O         -2.14402        -6.96361        -1.58944
O          6.00854         7.98223         0.88792
O          3.56112        -8.95610         0.20676
O         -3.30992         1.30356         2.56598
O          8.45038        -1.27016        -1.51770
O         -1.20079         0.20428         2.66425
O         -3.79303        -9.66729         0.81141
O         -9.87769        -1.06698         1.26144
O          7.00203         2.92145         1.85358
O         -7.56744        -5.79055         1.28089
O          0.57751        -6.45887        -1.87872
O         -0.46865        -6.23029         1.81852
O          4.31240        -6.17709         1.91497
O         -7.41287        -3.25356         1.82322
O          3.11138         3.43026        -1.03947
O         -2.73654        -6.95396         2.20988
O          8.35348         1.34053        -1.28483
O         -6.80403         3.62892        -1.10375
O         -6.27124         1.34177         2.04129
O          4.32456         5.08529         2.13824
O          6.41012        -4.55283         2.27522
O          0.36676         6.37131        -1.49391
O          0.24664         0.52763        -0.65805
O         -6.75738         5.30447         2.16524
O          3.82979         9.26602         0.74424
O         -4.48083        -6.57612        -1.51412
O         -4.60766         2.56844        -0.90168
H         -5.34991         2.74325        -1.53383
O        -10.56205         1.50852         1.56071
H        -10.58727         0.55144         1.81132
O          2.78258        -9.02454        -3.41714
H          2.69898        -8.04849        -3.45315
O         -2.39895        -1.40992        -0.31416
H         -3.09888        -1.95493        -0.75690
O         -8.93165        -5.01360        -2.10246
H         -8.15111        -4.53369        -2.44813
O         -1.50379         9.56527         1.14006
H         -1.91214        10.42581         1.37740
O          1.53384        10.25995         1.14149
H          1.42604         9.62611         1.89172
O          0.16154        -3.10455         3.34305
H         -0.68511        -2.84404         3.76605
O         -7.91348         4.44275         2.39015
H         -8.02304         4.52386         3.36928
O         -2.01028         2.79667        -1.13604
H         -1.37041         2.94756        -1.86775
O          7.67979        -8.07896         1.44681
H          7.06490        -7.65876         2.08408
O          7.79384        -0.79314         2.02033
H          8.35658        -1.37342         2.58469
O         11.16426         3.45736         0.76461
H         11.02402         4.42618         0.73833
O         10.03142         1.31789         1.86726
H         10.63089         2.02561         2.19450
H         12.28585        -1.31627        -0.33474
H         12.31529         1.11008        -0.05702
H         10.46149         2.85877        -1.11759
H          9.58341         5.36859        -0.68783
H          7.74757         6.90891        -1.79627
H          6.74639         9.13749        -2.22177
H          4.73673        10.27156        -2.37246
H          2.18130        10.01240        -2.10576
H         -0.06513        11.25459        -0.51408
H         -2.48214        10.98283        -1.57173
H         -4.92617        10.79091        -2.07012
H         -7.05139         9.59711        -1.90610
H         -8.32002         7.48169        -1.31422
H         -9.71818         5.71347        -0.53590
H        -11.04246         3.62583        -0.24270
H        -12.12849         1.39899        -1.06058
H        -12.09001        -1.03063        -1.27663
H        -10.88339        -3.27116        -1.06387
H         -9.84342        -5.50858        -0.33243
H         -8.42864        -7.70680        -1.09735
H         -6.90724        -9.57161        -1.89316
H         -4.79855       -10.67240        -2.00102
H         -2.21880       -10.95029        -1.40081
H          0.20031       -10.67434        -1.88676
H          2.51761       -10.58050        -2.09325
H          5.13415       -10.65720        -2.04299
H          7.25180        -9.65323        -1.35486
H          8.56110        -7.64465        -0.36710
H          9.72421        -5.65726        -0.05043
H         11.14320        -3.44316         0.32904
