         630
 CSIRO Nanostructure Databank - Neutral Graphene Oxide Data Set
C         22.93387        27.35258         0.98562
C         22.96140        28.67757         1.25063
C         23.07777        31.72854         1.52587
C         23.10304        33.08378         1.42120
C         23.05054        36.01124         0.99838
C         23.04395        37.37835         0.84870
C         23.03860        40.30118         0.46336
C         23.04422        41.67168         0.30403
C         23.05787        44.60795         0.11373
C         23.07582        45.98601         0.09259
C         25.31133        24.47784         0.51617
C         24.13322        25.20100         0.71487
C         25.37767        27.31259         0.53162
C         24.14790        26.59938         0.74618
C         25.38301        28.71680         0.63487
C         24.26133        29.43236         1.35645
C         25.38973        31.64507         0.48795
C         24.12250        30.89166         0.92326
C         25.42143        33.10467         0.60632
C         24.24543        33.81363         0.91168
C         25.45525        35.93978         0.54002
C         24.24524        35.25133         0.84129
C         25.44561        37.37978         0.39598
C         24.23352        38.10099         0.53983
C         25.44914        40.23006         0.11520
C         24.23232        39.53834         0.38076
C         25.43088        41.63719        -0.10288
C         24.23930        42.38258         0.01313
C         25.45221        44.54670        -0.28591
C         24.24693        43.84742        -0.08043
C         25.50126        45.96913        -0.26087
C         24.29071        46.69864        -0.09218
C         25.51245        48.78740        -0.34097
C         24.32671        48.12066        -0.13456
C         27.86819        22.92226         0.25023
C         27.77827        24.37226         0.06083
C         26.53833        25.13757         0.31661
C         27.85983        27.23832         0.37286
C         26.59018        26.55787         0.30700
C         27.90882        28.69943         0.18819
C         26.57290        29.47064         0.25641
C         27.88832        31.59830         0.37536
C         26.65560        30.92006         0.42976
C         27.90349        33.03767         0.25925
C         26.65672        33.77951         0.37221
C         27.87332        35.88367        -0.07543
C         26.64946        35.18678         0.34962
C         27.92959        37.34447         0.19744
C         26.66066        38.10156         0.16454
C         27.95534        40.19458        -0.15066
C         26.68786        39.49467         0.05193
C         27.96353        41.61118        -0.36122
C         26.67810        42.30263        -0.52347
C         27.97749        44.52230        -0.52221
C         26.68706        43.81747        -0.61658
C         27.98279        45.93805        -0.51061
C         26.74233        46.67422        -0.43440
C         28.00200        48.80078        -0.66471
C         26.74667        48.08793        -0.48837
C         28.05998        50.21468        -0.75947
C         30.33575        22.99769         0.28664
C         29.07033        22.29074         0.23422
C         30.35190        24.37781         0.49476
C         29.14003        25.14248         0.25094
C         30.26803        27.29022         0.99007
C         29.05189        26.56154         0.58221
C         30.29489        28.75733         0.83414
C         29.14788        29.44501         0.49916
C         30.36447        31.60250         0.54385
C         29.12853        30.88798         0.45562
C         30.37706        33.00865         0.29253
C         29.14072        33.68907         0.08259
C         30.49606        35.81800        -0.49672
C         29.15191        35.11862        -0.28644
C         30.48425        37.30692        -0.23146
C         29.22656        38.05477        -0.01350
C         30.40272        40.19625        -0.56919
C         29.16013        39.49520        -0.24695
C         30.42365        41.65477        -0.45773
C         29.17635        42.33936        -0.45318
C         30.43030        44.47431        -0.57374
C         29.18068        43.78361        -0.51689
C         30.42344        45.88479        -0.68264
C         29.22543        46.62818        -0.62381
C         30.44961        48.79101        -0.78399
C         29.22398        48.08063        -0.71076
C         30.49832        50.19841        -0.86929
C         29.26120        50.89106        -0.87702
C         32.88848        20.22836         0.09852
C         31.68091        20.90017         0.28561
C         32.79773        23.09601        -0.19640
C         31.58802        22.29087         0.21172
C         32.84855        24.48407         0.39530
C         31.60808        25.00344         1.08863
C         32.83247        27.30637         1.04070
C         31.56583        26.53682         1.18175
C         32.80477        28.72923         1.12561
C         31.51314        29.49100         1.33815
C         32.80645        31.60032         0.85153
C         31.57747        30.91593         0.83916
C         32.83789        33.02155         0.63969
C         31.62985        33.72771         0.34757
C         32.88606        35.84850         0.27176
C         31.67787        35.12740         0.13580
C         32.92476        37.28454         0.09736
C         31.67956        37.97819        -0.16370
C         32.93461        40.19109        -0.15118
C         31.71943        39.42947        -0.44461
C         32.91055        41.59909        -0.24523
C         31.66678        42.33264        -0.43442
C         32.92869        44.45879        -0.48206
C         31.67577        43.75093        -0.50705
C         32.96016        45.85348        -0.65497
C         31.70232        46.58137        -1.05205
C         33.00844        48.75101        -0.73101
C         31.69985        48.02728        -0.62484
C         32.96910        50.16082        -1.11998
C         31.77986        50.88008        -1.08630
C         33.00054        52.97187        -1.53436
C         31.84433        52.31805        -1.24578
C         35.42301        18.84195        -0.47688
C         35.35543        20.24803        -0.29617
C         34.11002        20.93695        -0.07690
C         35.30218        23.09182        -0.14761
C         34.10314        22.35384        -0.05520
C         35.23713        24.60209        -0.30626
C         33.99886        25.21332         0.33229
C         35.28147        27.30598         0.80312
C         34.03174        26.61242         0.74021
C         35.26052        28.68282         1.43112
C         34.00719        29.46098         1.14190
C         35.28567        31.59593         1.11820
C         34.03740        30.87672         1.07335
C         35.29602        33.01878         0.96263
C         34.07176        33.73111         0.72773
C         35.31839        35.88154         0.69002
C         34.09280        35.14958         0.57676
C         35.32295        37.30931         0.61323
C         34.10178        38.01640         0.31941
C         35.29712        40.20459         0.45421
C         34.11723        39.48118         0.22250
C         35.33884        41.61500         0.23236
C         34.13388        42.31969        -0.08984
C         35.39100        44.43334        -0.25284
C         34.15313        43.73587        -0.26104
C         35.42344        45.83197        -0.53313
C         34.19763        46.55594        -0.69545
C         35.46615        48.62997        -1.12179
C         34.24249        47.96184        -0.91563
C         35.49650        50.02305        -1.49058
C         34.20091        50.73891        -1.67491
C         35.53405        52.91041        -2.04000
C         34.21308        52.24342        -1.92392
C         35.66196        54.26908        -2.07822
C         37.82507        18.94011        -0.89874
C         36.60583        18.21463        -0.81052
C         37.78456        20.32268        -0.64225
C         36.55572        21.00676        -0.41078
C         37.74775        23.25189        -0.68388
C         36.52652        22.43383        -0.31545
C         37.72373        24.64343        -0.09462
C         36.53128        25.28665         0.09544
C         37.75589        27.35236         0.80996
C         36.49630        26.66529         0.55099
C         37.71585        28.74595         1.20352
C         36.53199        29.45450         1.24520
C         37.75833        31.61495         1.27515
C         36.51942        30.89626         1.26374
C         37.75703        33.04012         1.16713
C         36.52581        33.74020         1.00619
C         37.76116        35.89111         1.01316
C         36.53723        35.17103         0.89959
C         37.73554        37.31799         1.02643
C         36.53841        38.01976         0.83408
C         37.78624        40.23969         0.79272
C         36.48782        39.51709         1.07619
C         37.79714        41.59419         0.56558
C         36.57634        42.33278         0.30805
C         37.83964        44.45803        -0.02245
C         36.61208        43.72957         0.02615
C         37.88425        45.80796        -0.41889
C         36.66177        46.51910        -0.65460
C         37.93265        48.58331        -1.15684
C         36.69072        47.90265        -0.99294
C         37.94517        49.95556        -1.54659
C         36.70464        50.66284        -1.73828
C         38.03442        52.75571        -2.28869
C         36.71659        52.02966        -2.41004
C         38.06970        54.17450        -2.54377
C         36.90667        54.90431        -2.39576
C         40.22324        16.41508        -2.37757
C         39.07154        16.97576        -1.86336
C         40.28442        19.00950        -1.32796
C         39.07071        18.29314        -1.32905
C         40.35445        20.33823        -0.71368
C         39.02930        21.07317        -0.42259
C         40.26021        23.18994        -0.21469
C         39.04592        22.52838        -0.41230
C         40.28474        24.62398         0.03505
C         39.01398        25.42329        -0.18246
C         40.23161        27.40856         0.82394
C         38.97557        26.72690         0.57101
C         40.22349        28.72907         1.22983
C         38.97110        29.42774         1.65613
C         40.21305        31.61562         1.46837
C         38.99520        30.91860         1.40833
C         40.21849        33.05226         1.39850
C         38.98962        33.76326         1.23339
C         40.24835        35.89184         1.24139
C         38.99973        35.18393         1.17860
C         40.27900        37.30667         1.17758
C         39.00645        38.04012         1.27870
C         40.34291        40.18682         0.81640
C         39.04473        39.54326         1.12968
C         40.35415        41.59360         0.61257
C         39.08075        42.32769         0.70019
C         40.37306        44.45071         0.06342
C         39.09185        43.81315         0.39713
C         40.37514        45.81394        -0.33421
C         39.13976        46.50201        -0.54597
C         40.40163        48.54494        -1.09973
C         39.15579        47.86894        -0.93292
C         40.40528        49.90008        -1.53698
C         39.19408        50.62072        -1.74334
C         40.48798        52.68201        -2.23350
C         39.20780        52.04266        -2.05253
C         40.65181        54.12845        -2.60627
C         39.35946        54.86466        -2.84084
C         40.42058        57.02186        -2.33671
C         39.39158        56.35488        -2.86685
C         42.63245        16.57731        -2.94936
C         41.43972        17.14445        -2.41205
C         42.70112        19.22239        -1.91845
C         41.47395        18.46785        -1.88965
C         42.74545        20.57196        -1.42057
C         41.54401        21.16627        -0.88179
C         42.79351        23.15760        -0.20094
C         41.50519        22.47486        -0.41051
C         42.77327        24.60850         0.21450
C         41.46671        25.30536         0.25790
C         42.72139        27.36429         0.75587
C         41.49410        26.71455         0.59092
C         42.77776        28.71425         1.33369
C         41.46388        29.43710         1.55999
C         42.69149        31.56842         1.68120
C         41.47297        30.90604         1.57039
C         42.65623        33.02840         1.90026
C         41.43222        33.76525         1.54364
C         42.72819        35.88663         1.40296
C         41.47185        35.17120         1.42215
C         42.72257        37.27491         1.10161
C         41.51392        38.00627         1.05486
C         42.79921        40.13017         0.63698
C         41.53381        39.44451         0.83037
C         42.80428        41.57323         0.43776
C         41.56790        42.29809         0.43728
C         42.81979        44.41935         0.05122
C         41.57563        43.72465         0.19490
C         42.84175        45.82023        -0.22070
C         41.62184        46.50738        -0.47213
C         42.88870        48.59421        -0.90819
C         41.63794        47.88147        -0.84602
C         42.89450        49.97645        -1.31274
C         41.67404        50.54849        -1.72491
C         43.40942        53.01374        -2.00476
C         41.57975        51.85744        -2.30350
C         43.10827        54.42734        -1.77756
C         41.84140        54.93278        -2.11789
C         42.65656        57.15429        -1.22141
C         41.47260        56.29205        -1.54130
C         43.80361        17.29270        -2.96293
C         45.10543        19.37794        -2.49012
C         43.87300        18.62775        -2.45522
C         45.13317        20.72793        -2.02433
C         43.93837        21.32092        -1.47858
C         45.14138        23.41723        -0.94745
C         43.99492        22.64281        -0.89087
C         45.20050        24.76402        -0.41210
C         44.00205        25.39910         0.02404
C         45.20100        27.50488         0.43908
C         43.97658        26.75874         0.37859
C         45.21628        28.86845         0.85348
C         43.99907        29.52197         1.21353
C         45.20602        31.63485         1.56774
C         43.95826        30.89065         1.52122
C         45.20584        33.00567         1.81183
C         43.96506        33.78713         1.96936
C         45.20249        35.94672         1.61241
C         43.96503        35.21453         1.60868
C         45.23487        37.29474         1.31448
C         44.01395        37.91880         0.67982
C         45.28941        40.06358         0.46304
C         43.99314        39.41834         0.71442
C         45.29731        41.56511         0.19872
C         44.01525        42.28061         0.28013
C         45.28612        44.41428         0.18106
C         44.03952        43.69832         0.16923
C         45.30104        45.81145        -0.03090
C         44.09016        46.52995        -0.28967
C         45.41849        48.61818        -0.86756
C         44.09721        47.91714        -0.60425
C         45.39190        50.12193        -0.63586
C         44.04772        50.82754        -0.76589
C         45.34895        53.05742        -0.66758
C         44.19374        52.27541        -1.17617
C         45.09469        54.45475        -0.15660
C         44.04954        55.18472        -0.99303
C         43.83990        56.58370        -0.84094
C         47.48333        19.53771        -3.01085
C         46.31100        18.81518        -2.98706
C         47.52918        20.88535        -2.55638
C         46.33805        21.47397        -2.07274
C         47.61458        23.46822        -1.22292
C         46.30855        22.95659        -1.78663
C         47.66606        24.87412        -0.76943
C         46.42067        25.49561        -0.36860
C         47.66091        27.54246         0.26865
C         46.43225        26.84899         0.10845
C         47.68916        28.88758         0.69727
C         46.45303        29.58155         0.96216
C         47.71332        31.63807         1.52051
C         46.45800        30.93832         1.35872
C         47.71748        32.99988         1.81525
C         46.46141        33.72115         2.01302
C         47.75216        35.92700         1.70576
C         46.46333        35.24828         1.99321
C         47.75326        37.32693         1.51705
C         46.45999        38.10841         1.66098
C         47.70699        40.16670         0.98960
C         46.53022        39.45209         0.97029
C         47.74537        41.58900         0.73736
C         46.53729        42.31206         0.47303
C         47.69380        44.48411         0.97534
C         46.50254        43.70562         0.46841
C         47.75365        45.86807         0.38741
C         46.57316        46.52791         0.01015
C         47.74841        48.67221         0.25185
C         46.58863        47.91716        -0.23811
C         47.70769        50.16972         0.28431
C         46.49977        50.82875        -0.26817
C         47.69643        53.04821         0.31108
C         46.57029        52.31029        -0.29445
C         47.56248        54.47005         0.36270
C         46.40130        55.15574         0.09119
C         49.91207        21.21765        -3.26947
C         48.77590        21.62377        -2.56282
C         50.10579        23.63664        -1.75571
C         48.88617        22.81967        -1.71444
C         50.11269        24.93847        -1.17625
C         48.88498        25.51762        -0.65270
C         50.13220        27.65243        -0.10618
C         48.95825        26.77115         0.18225
C         50.15756        28.93549         0.42354
C         48.93748        29.57419         0.86707
C         50.21535        31.57990         1.48126
C         48.96673        30.92364         1.30922
C         50.27243        32.99153         1.92192
C         48.95951        33.75692         2.03311
C         50.19821        35.89395         1.53241
C         48.97042        35.21574         1.75917
C         50.19397        37.30890         1.37862
C         48.96418        38.01862         1.41354
C         50.22326        40.17759         1.10636
C         48.94904        39.52239         1.57516
C         50.21612        41.58019         0.89918
C         48.97897        42.29680         0.84585
C         50.20169        44.42326         0.91271
C         48.99922        43.72935         0.85073
C         50.16857        45.92282         1.07606
C         49.09395        46.51277         0.15335
C         50.21367        48.74224         0.45251
C         49.05857        48.01585         0.30516
C         50.19727        50.21101         0.47232
C         48.97711        50.92013         0.38495
C         50.17219        53.02403         0.66931
C         48.94277        52.34797         0.46561
C         51.11444        21.92040        -3.18394
C         52.47576        23.86499        -2.38493
C         51.23645        23.13038        -2.44357
C         52.50078        25.14453        -1.75539
C         51.30431        25.69975        -1.21944
C         52.60389        27.74434        -0.50116
C         51.27626        27.18293        -0.95005
C         52.64532        28.97072         0.18530
C         51.41150        29.64170         0.54479
C         52.71851        31.53430         1.47002
C         51.42340        30.90905         1.14328
C         52.75583        33.05766         1.68129
C         51.48561        33.78486         1.63273
C         52.69810        35.89773         1.28363
C         51.45905        35.16659         1.48160
C         52.66513        37.29368         1.16037
C         51.43896        38.02375         1.19930
C         52.63657        40.15185         0.58594
C         51.41097        39.43856         1.01808
C         52.68118        41.61996         0.68378
C         51.45426        42.31061         0.80507
C         52.69165        44.43554         0.89243
C         51.44992        43.72997         0.85449
C         52.68686        45.89453         0.90692
C         51.49939        46.60714         0.86538
C         52.66673        48.76231         0.70637
C         51.49240        48.04728         0.66243
C         52.71103        50.19415         0.22612
C         51.41935        50.93317         0.53202
C         51.37612        52.33188         0.65828
C         54.85987        24.05380        -2.86072
C         53.67634        23.35486        -2.94460
C         54.93233        25.31478        -2.20429
C         53.74440        25.86721        -1.66685
C         55.05295        27.73619        -0.70721
C         53.79334        27.12397        -0.96241
C         55.10359        28.91357         0.08275
C         53.91691        29.56141         0.49939
C         55.17188        31.59044         1.18030
C         53.97189        30.87908         1.07196
C         55.20667        33.03294         1.22050
C         54.00008        33.76458         1.37539
C         55.18433        35.82413         0.90114
C         53.96611        35.16721         1.21009
C         55.13105        37.25984         0.59905
C         53.97716        38.04498         1.18498
C         55.20452        40.19478         0.57987
C         53.93639        39.42098         0.56088
C         55.17638        41.59851         0.62355
C         53.91390        42.31405         0.71542
C         55.20549        44.44078         1.16570
C         53.90423        43.73036         0.86545
C         55.16794        45.92968         0.89584
C         53.95732        46.59279         0.90223
C         55.20664        48.83196         1.13963
C         53.91586        48.06142         1.05456
C         55.12737        50.30020         0.91299
C         53.98417        50.91869         0.59030
C         57.39217        25.53048        -2.67123
C         56.19707        26.00771        -2.05053
C         57.52182        27.82835        -1.03577
C         56.26061        27.17499        -1.25425
C         57.62955        28.95259        -0.16664
C         56.40555        29.43534         0.50193
C         57.70087        31.59932         0.98752
C         56.44301        30.86964         1.10319
C         57.68362        32.98766         0.86235
C         56.43233        33.71795         0.96603
C         57.65925        35.85705         0.58762
C         56.41635        35.13049         0.79581
C         57.67910        37.26445         0.46096
C         56.41481        38.01498         0.35625
C         57.66202        40.17692         0.43463
C         56.42751        39.48715         0.50469
C         57.66519        41.61152         0.36700
C         56.41288        42.33662         0.50141
C         57.57792        44.51267         0.23572
C         56.39694        43.73030         0.57904
C         57.62200        45.95766         0.52940
C         56.42002        46.66271         0.80520
C         57.68372        48.75478         0.71562
C         56.45832        48.08086         0.88486
C         58.59398        26.17311        -2.50191
C         59.93141        27.98010        -1.44953
C         58.69450        27.32681        -1.66848
C         60.00871        29.08732        -0.62290
C         58.86310        29.59280         0.03408
C         60.18897        31.61543         0.78360
C         58.97044        30.77198         1.01664
C         60.14377        32.95961         0.64134
C         58.91382        33.71610         0.68244
C         60.11368        35.88202         0.49153
C         58.90122        35.13134         0.58435
C         60.11507        37.25336         0.44578
C         58.89863        37.99612         0.43422
C         60.10382        40.17550         0.34886
C         58.89596        39.43944         0.39170
C         60.10425        41.55795         0.30465
C         58.89844        42.29595         0.27426
C         60.14321        44.55352         0.27805
C         58.92083        43.75831         0.06969
C         60.09860        45.90493         0.35689
C         58.85249        46.64308         0.43901
C         58.86601        48.05182         0.53771
O         54.50125        48.45608         2.37490
O         46.39871        52.90524        -1.68339
O         52.80338        32.11620         2.80663
O         49.68880        33.31493         3.22867
O         24.37252        31.13339        -0.47346
O         33.99899        51.28348        -3.03505
O         42.18473        28.81308         2.68536
O         43.21253        33.45425         3.19715
O         42.68285        52.35337        -2.99050
O         55.52934        37.58521        -0.76014
O         28.27101        35.45924        -1.42845
O         28.53955        24.85817        -1.06677
O         31.12866        39.70786        -1.76567
O         40.15147        54.35495        -3.97634
O         26.56165        42.98888        -1.82850
O         46.44403        34.55377         3.26744
O         48.32689        22.56855        -0.34183
O         39.81745        20.43523         0.64116
O         27.21714        29.08135        -1.01699
O         42.97643        23.54103         1.21034
O         28.73014        37.67753         1.38453
O         39.04629        43.31187         1.78982
O         38.97740        38.92446         2.47870
O         56.50947        29.66238         1.94354
O         45.40205        40.60564        -0.91390
O         47.40221        49.41359         1.51599
O         32.40375        48.39508         0.59092
O         58.13633        44.18295        -1.08598
O         53.18705        39.56384        -0.67249
O         30.77320        26.91961         2.36461
O         24.61913        29.50681         2.78332
H         24.61868        28.59217         3.13714
O         54.29717        38.27622         2.59220
H         54.14840        37.44205         3.08574
O         30.77617        35.70469        -1.93202
H         29.91341        35.80871        -2.39700
O         31.33193        29.59235         2.79777
H         31.25946        28.66478         3.12829
O         36.56172        51.74360        -3.84365
H         35.62684        51.44106        -3.96398
O         32.66354        23.33125        -1.66739
H         32.49177        22.45933        -2.08498
O         45.63653        48.48724        -2.33180
H         44.87672        48.91791        -2.78067
O         43.60940        50.94997         0.64949
H         44.15891        51.63991         1.08309
O         35.12259        24.80392        -1.76061
H         34.25634        24.39692        -2.02221
O         44.13303        37.60380        -0.78045
H         44.67240        38.31540        -1.19216
O         48.88138        39.75618         3.02137
H         48.02985        39.35421         3.33038
O         40.82745        55.97819        -0.23746
H         41.51714        55.57537         0.33319
O         37.66056        23.45927        -2.14977
H         36.78738        23.90908        -2.30082
O         35.20108        28.43339         2.89004
H         36.10963        28.21291         3.19080
O         49.18861        26.27170         1.56431
H         48.44121        25.67619         1.78921
O         31.70853        24.50800         2.45682
H         31.20984        25.14050         3.02388
O         46.35613        38.42919         3.10466
H         46.24379        37.58075         3.58784
O         44.44641        54.24510         1.16092
H         44.40905        55.11357         1.61534
O         46.17511        23.63047        -3.08674
H         45.33289        23.33498        -3.49246
O         36.29930        39.65404         2.52938
H         37.15762        39.38659         2.94358
O         39.08688        25.80566        -1.61317
H         38.75557        25.02498        -2.12623
O         49.50272        46.20061        -1.21345
H         48.78614        46.48370        -1.82023
O         31.71484        46.64558        -2.52348
H         31.62786        45.73009        -2.86460
O         51.03873        27.78821        -2.29247
H         51.80204        27.54027        -2.85773
O         49.75244        46.23894         2.42775
H         50.37310        45.81308         3.05375
O         38.94163        29.27589         3.13367
H         39.85033        29.44461         3.46816
O         59.12211        30.18715         2.34357
H         58.25734        29.76075         2.56426
O         55.38423        44.33337         2.63182
H         54.72041        44.92096         3.05262
O         52.75106        50.11271        -1.24582
H         51.92125        49.68162        -1.54289
O         47.43939        44.65260         2.41846
H         47.42905        43.75821         2.82064
H         21.97636        26.81006         0.96894
H         22.02490        29.21632         1.45643
H         22.27405        31.24133         2.09683
H         22.27468        33.65585         1.86209
H         22.10407        35.49981         1.21865
H         22.09353        37.91444         0.96984
H         22.08028        39.80306         0.66050
H         22.09083        42.20856         0.39155
H         22.09776        44.09874         0.26883
H         22.14087        46.54993         0.22229
H         25.26609        23.38080         0.49841
H         23.18367        24.66614         0.85995
H         25.50026        49.88479        -0.37440
H         23.39060        48.68348        -0.00883
H         26.94813        22.33409         0.37495
H         27.13315        50.80343        -0.74813
H         29.08631        21.19321         0.28622
H         29.23977        51.98576        -0.96223
H         32.89109        19.13230         0.14665
H         30.78758        20.30278         0.51507
H         33.02759        54.06980        -1.49038
H         30.94851        52.91370        -1.02214
H         34.51365        18.23316        -0.38653
H         34.78780        54.91524        -1.91103
H         36.59871        17.12837        -0.97036
H         36.91420        55.99596        -2.51332
H         40.20400        15.39196        -2.77989
H         38.14441        16.38760        -1.87864
H         40.48457        58.11811        -2.40996
H         38.61071        56.88455        -3.43411
H         42.60384        15.55392        -3.35026
H         42.50219        58.23799        -1.11507
H         44.70194        16.82158        -3.38254
H         44.64501        57.21085        -0.42804
H         48.40098        19.05452        -3.37268
H         46.32937        17.77806        -3.34606
H         48.45010        55.06493         0.62644
H         46.41292        56.25473         0.14117
H         49.87333        20.32321        -3.90683
H         50.18886        54.11748         0.76921
H         51.97648        21.53727        -3.74511
H         52.30819        52.90690         0.73976
H         55.76507        23.60279        -3.28717
H         53.67915        22.37361        -3.43707
H         56.03063        50.90369         1.09055
H         54.00293        52.00902         0.44752
H         57.35705        24.64047        -3.31315
H         57.71634        49.85131         0.76794
H         59.49874        25.79380        -2.99822
H         60.83640        27.59539        -1.94122
H         60.98231        29.57319        -0.47544
H         61.16790        31.11622         0.81480
H         61.09302        33.49613         0.50719
H         61.08005        35.36217         0.48514
H         61.08059        37.77364         0.40505
H         61.07038        39.65627         0.32917
H         61.06725        42.08230         0.24364
H         61.11212        44.03972         0.35110
H         61.03340        46.47693         0.45474
H         59.82150        48.58991         0.46296
