         224
 CSIRO Nanostructure Databank - Neutral Graphene Oxide Data Set
C        -11.13061         0.67176         0.67463
C         -9.93445         1.47950         0.50352
C         -8.73097         0.84023         0.06461
C         -7.49329         1.53684         0.09895
C         -6.22890         0.87549        -0.16106
C         -5.00482         1.51737         0.11877
C         -3.74555         0.81219         0.04433
C         -2.50260         1.59082         0.27108
C         -1.17278         0.90752         0.24613
C          0.02880         1.57240         0.83760
C          1.23265         0.77137         1.18110
C          2.56042         1.48145         1.39150
C          3.86039         0.74057         1.19535
C          5.04652         1.49388         0.70558
C          6.28033         0.78590         0.50940
C          7.45618         1.43537         0.22569
C          8.75644         0.72959         0.52196
C          9.92912         1.41187        -0.19188
C         11.22007         0.68906         0.11698
C         -9.95884         2.85852         0.71700
C         -8.76019         3.63444         0.57822
C         -7.51483         2.90297         0.47796
C         -6.29006         3.59225         0.83546
C         -5.00121         2.81032         0.91134
C         -3.74981         3.65370         0.79566
C         -2.55495         2.97167         0.78009
C         -1.27888         3.66413         0.99512
C          0.01453         2.92978         1.02786
C          1.26203         3.72473         1.27957
C          2.58386         2.98152         1.29468
C          3.81062         3.64463         0.79929
C          5.01604         2.91280         0.59876
C          6.22820         3.62498         0.22532
C          7.44301         2.85932        -0.26421
C          8.74891         3.59668        -0.01572
C          9.92250         2.90080         0.03495
C         -8.75574         5.02559         0.47602
C         -7.52555         5.71069        -0.06609
C         -6.26958         5.11402         0.55853
C         -4.99471         5.73925         0.26795
C         -3.77958         5.08584         0.54744
C         -2.55323         5.77784         0.29623
C         -1.29622         5.16542         0.73437
C          0.00932         5.85233         0.45621
C          1.28718         5.15788         0.79603
C          2.56638         5.74512         0.33191
C          3.76614         5.03818         0.51694
C          5.04184         5.76362         0.46056
C          6.27448         5.00330         0.22033
C          7.51153         5.73599        -0.03085
C          8.70765         5.04070        -0.03399
C         -7.45178         7.22217         0.02436
C         -6.26911         7.85681        -0.20912
C         -5.02634         7.03893        -0.49723
C         -3.73412         7.80597        -0.41839
C         -2.54846         7.11280        -0.18470
C         -1.28025         7.71753        -0.66946
C          0.00235         6.96377        -0.54593
C          1.33420         7.59324        -0.96594
C          2.56338         7.07168        -0.22754
C          3.74129         7.76715        -0.42864
C          5.01372         7.24186         0.06246
C          6.28581         7.86807        -0.36789
C          7.45954         7.16336        -0.29252
C         -6.14586         9.29760        -0.34598
C         -4.97029         9.91610        -0.65821
C         -3.70494         9.20638        -0.72760
C         -2.48844         9.86739        -0.93963
C         -1.23616         9.17286        -0.94117
C         -0.00149         9.80003        -1.04788
C          1.27452         9.11592        -1.01292
C          2.46278         9.77833        -1.14809
C          3.76189         9.01243        -1.29635
C          5.00819         9.83698        -1.07091
C          6.19059         9.27209        -0.74042
C        -11.12991        -0.68024         0.50606
C         -9.95407        -1.38674         0.04890
C         -8.79730        -0.56416        -0.35669
C         -7.49201        -1.29275        -0.69523
C         -6.20993        -0.50845        -0.67254
C         -4.89391        -1.27526        -0.61636
C         -3.67366        -0.55250        -0.21130
C         -2.44253        -1.30681        -0.15551
C         -1.16406        -0.56236        -0.05294
C          0.08523        -1.33687         0.19857
C          1.22656        -0.71409         0.93333
C          2.53238        -1.49544         0.93216
C          3.84436        -0.76923         1.03111
C          5.02473        -1.31461         0.22888
C          6.33994        -0.71960         0.78550
C          7.53003        -1.43046         0.15796
C          8.74346        -0.74158         0.17424
C          9.98677        -1.42988         0.02487
C         11.22735        -0.65944         0.14455
C         -9.89068        -2.75632        -0.06364
C         -8.65775        -3.45998        -0.35284
C         -7.45841        -2.74010        -0.52947
C         -6.17884        -3.49002        -0.83828
C         -4.89688        -2.74035        -0.51033
C         -3.71031        -3.42298        -0.33255
C         -2.44561        -2.70422        -0.20381
C         -1.19897        -3.46811        -0.08871
C          0.01993        -2.80614         0.17594
C          1.26026        -3.49964         0.14536
C          2.50092        -2.80650         0.28138
C          3.73497        -3.41217        -0.21366
C          5.04516        -2.80621         0.00318
C          6.22425        -3.52876        -0.19196
C          7.49184        -2.82759        -0.07366
C          8.73917        -3.54817        -0.16118
C          9.97412        -2.81460        -0.07804
C         -8.65412        -4.88444        -0.37758
C         -7.45289        -5.63962        -0.42294
C         -6.18330        -4.85088        -0.14170
C         -4.89042        -5.58111        -0.40836
C         -3.71487        -4.89126        -0.40200
C         -2.41748        -5.62463        -0.66278
C         -1.18594        -4.88124        -0.21452
C          0.02458        -5.61591        -0.10669
C          1.23535        -4.91193        -0.01388
C          2.51837        -5.62582         0.03157
C          3.71830        -4.90510        -0.46363
C          4.99854        -5.63203        -0.58113
C          6.21113        -4.96556        -0.48266
C          7.53299        -5.73919        -0.66441
C          8.75050        -4.92855        -0.31703
C         -7.45585        -7.02029        -0.52943
C         -6.21158        -7.80246        -0.64763
C         -4.91173        -7.05288        -0.60530
C         -3.70813        -7.79090        -0.12444
C         -2.42581        -7.03348        -0.09526
C         -1.17202        -7.80401        -0.13947
C          0.04239        -7.08843        -0.13376
C          1.24628        -7.81851        -0.08572
C          2.52811        -7.11553         0.04541
C          3.74648        -7.80019        -0.41952
C          4.82721        -7.05379        -0.82193
C          6.67777        -8.07531        -0.31083
C          7.51583        -7.08552         0.09497
C         -6.14957        -9.25167        -0.34225
C         -4.97548        -9.92599        -0.21554
C         -3.67848        -9.26709        -0.18897
C         -2.46979        -9.92210        -0.15350
C         -1.19313        -9.22313        -0.13474
C          0.03795        -9.92395        -0.16492
C          1.27079        -9.23822        -0.15245
C          2.56374        -9.91240        -0.11353
C          3.77625        -9.25006        -0.25453
C          5.03778        -9.91932         0.07758
C          6.29048        -9.38063         0.21749
O          6.60366        -0.90482         2.14309
O          2.72576        -6.34757         1.30125
O          3.85021         8.57969        -2.69136
H          3.04331         8.02852        -2.86559
O         -6.17776        -3.68529        -2.27402
H         -6.13867        -2.79386        -2.68926
O          7.70179        -5.99235        -2.08586
H          7.01610        -6.65601        -2.34156
O          1.76459         1.05115         2.51361
O          0.68023         6.17147         1.70593
O         -1.36232         4.63635         2.08668
O          4.84221        -0.73654        -1.10587
H          5.47912        -1.15999        -1.72038
O         -0.19044        -0.80082        -1.14409
O          8.91368         0.80387         1.96147
H          8.17486         0.25003         2.34230
O         -0.81340         6.75943        -1.74342
O         -5.44046        -0.75402        -1.90200
O         -5.14448         6.67651        -1.94057
H         -4.29347         6.26947        -2.21401
O         -1.64419         1.62763        -0.95398
O          2.00692         3.57393         2.51204
O         -5.43089        -7.47985        -1.89398
O         -4.96691         1.99428         2.08751
O          3.49672        -4.00704        -1.57433
O         -8.39752        -0.81068        -1.75121
O         -7.50814         5.36833        -1.48901
H         -6.74200         5.84638        -1.90265
O         -3.19760        -7.21575         1.13450
O         -2.29066        -5.79995        -2.10658
H         -2.39221        -4.92305        -2.53301
O          1.63820        -1.46097         2.09975
O          5.87515        -7.74964        -1.44462
O         -6.21272        -4.54597         1.28353
H         -6.05662        -5.37468         1.78280
O          7.27605         2.78252        -1.72171
H          7.32139         3.69877        -2.06826
O          1.56940         7.14910        -2.34210
H          0.67826         7.09885        -2.76910
O          9.66557         1.19822        -1.61319
H         10.34340         1.68451        -2.12640
O          5.08455         6.82951         1.46338
O          4.16527        -0.18507         2.29804
O         -6.45157         4.58582         1.89266
H         12.16703        -1.21508         0.28499
H         12.15568         1.26010         0.22046
H         10.87901         3.44054         0.13121
H          9.65914         5.59127        -0.09189
H          8.40658         7.66524        -0.54410
H          7.11079         9.87647        -0.72432
H          4.96829        10.90401        -1.33794
H          2.47432        10.87309        -1.27009
H          0.02289        10.89382        -1.17388
H         -2.48784        10.95534        -1.10366
H         -4.95530        11.00704        -0.80085
H         -7.06072         9.89904        -0.23313
H         -8.37728         7.80371         0.16161
H         -9.70228         5.58340         0.54557
H        -10.91082         3.36427         0.93471
H        -12.04784         1.18100         1.00493
H        -12.04137        -1.26245         0.70691
H        -10.78034        -3.35826         0.17671
H         -9.61932        -5.41423        -0.37616
H         -8.41757        -7.55376        -0.59907
H         -7.10075        -9.80233        -0.28188
H         -4.99527       -11.01724        -0.07247
H         -2.45107       -11.02258        -0.18145
H          0.02902       -11.02409        -0.18830
H          2.56586       -10.99963         0.06187
H          4.91351       -10.95701         0.43114
H          7.06537        -9.99510         0.70253
H          8.15740        -7.21318         0.97826
H          9.72042        -5.44278        -0.40618
H         10.92191        -3.37299        -0.11117
