         294
 CSIRO Nanostructure Databank - Neutral Graphene Oxide Data Set
C          1.90321         2.70843        -2.70361
C          1.54133         3.54171        -1.59282
C          3.19787         2.31712        -2.86625
C          2.48664         4.12217        -0.78984
C          1.21806         6.60592         1.48622
C          1.33011         7.82517         2.05316
C          2.35369         5.92736         0.86541
C          2.58586         8.57080         1.84448
C          1.21669        10.71849         1.10544
C          1.16956        11.95071         0.56216
C          2.48790         9.96017         1.26169
C          2.34298        12.67063        -0.00010
C          1.21480        15.06911         0.36836
C          1.22720        16.38945         0.11924
C          2.33759        14.19626        -0.09698
C          2.29728        17.08564        -0.70753
C          2.39806        18.56804        -0.43055
C          4.23455         2.78623        -1.97585
C          3.94269         3.94238        -1.06604
C          5.46286         2.18377        -1.99997
C          5.07672         4.52401        -0.25478
C          3.64152         6.38758         0.93529
C          3.85325         7.71011         1.68951
C          4.85115         5.43924         0.96981
C          5.01710         8.44372         1.08345
C          3.55600        10.35956         0.29945
C          3.63987        11.82574        -0.15775
C          4.85525         9.58983         0.18630
C          4.89531        12.37731         0.51141
C          3.64459        14.97871        -0.03682
C          3.63920        16.41184        -0.53626
C          4.84965        14.37964        -0.75942
C          4.84057        17.07874        -0.50750
C          3.57387        19.22414        -0.38008
C          4.86652        18.54511        -0.48101
C          6.51838         2.52595        -1.07711
C          6.37860         3.75105        -0.26658
C          7.60812         1.70687        -0.93820
C          7.47160         4.18369         0.42236
C          6.17488         6.21593         1.31942
C          6.32967         7.77246         1.33982
C          7.46071         5.48314         1.13130
C          7.38659         8.18021         0.26181
C          6.08641        10.38316        -0.24714
C          6.09805        11.84568         0.07221
C          7.40772         9.69262        -0.01489
C          7.33750        12.64666        -0.31049
C          6.15261        14.92141        -0.25882
C          6.13261        16.38519        -0.30967
C          7.27728        14.16246        -0.08305
C          7.31624        17.08358        -0.30253
C          6.04266        19.22918        -0.40821
C          7.38515        18.56650        -0.61502
C          8.63859         1.99011         0.13132
C          8.82418         3.51313         0.18723
C          9.95312         1.26728        -0.03147
C          9.91360         3.93049         1.19946
C          8.75986         6.23524         1.10940
C          8.74552         7.63655         0.63727
C         10.04637         5.46222         1.15296
C          9.90532         8.33991         0.59014
C          8.57663        10.52417         0.48138
C          8.57534        12.01940         0.32062
C          9.89933         9.82284         0.65242
C          9.85674        12.75640         0.13303
C          8.56903        14.85976         0.06705
C          8.57904        16.37468        -0.02052
C          9.82399        14.08576        -0.14675
C          9.84738        17.11713        -0.43449
C          8.50992        19.24994         0.19154
C          9.85636        18.50579         0.22196
C         11.15690         1.76259         0.44711
C         11.22298         3.21413         0.85185
C         12.33305         0.95143         0.35638
C         12.37557         4.01417         0.32260
C         11.23627         6.16311         0.61131
C         11.21499         7.64431         0.69061
C         12.36595         5.50123         0.22658
C         12.43347         8.38384         0.19056
C         11.19552        10.58665         0.54738
C         11.19337        12.11111         0.46994
C         12.37386         9.85656         0.01239
C         12.37760        12.71881        -0.24091
C         11.02614        14.81645        -0.72142
C         11.10851        16.26602        -0.17873
C         12.34744        14.10853        -0.44622
C         12.34043        16.90227        -0.77145
C         10.87688        19.12841         0.86228
C         12.21698        18.61104         1.30750
C         13.66817         1.24062         0.84753
C         13.40539         3.41245        -0.60849
C         14.77509         1.12819         0.01227
C         14.75579         4.02898        -0.44612
C         13.57719         6.17956        -0.24278
C         13.57471         7.61960        -0.36645
C         14.72987         5.47149        -0.58779
C         14.66782         8.30139        -0.89788
C         13.44898        10.51746        -0.51591
C         13.58921        11.97274        -0.37603
C         14.39933         9.70327        -1.36335
C         14.83318        12.64200        -0.39588
C         13.55026        14.83518        -0.44265
C         13.56741        16.24147        -0.59984
C         14.83210        14.12667        -0.12847
C         14.80544        17.08295        -0.43825
C         13.40999        18.83898         0.66287
C         14.67045        18.00501         0.82600
C         15.97737         1.95800         0.30741
C         15.91087         3.36518        -0.10302
C         17.08432         1.51921         0.96668
C         17.19610         4.09225        -0.26366
C         15.92006         6.14694        -1.27539
C         15.95122         7.65021        -1.04735
C         17.23809         5.42066        -0.95233
C         17.15482         8.35279        -0.97284
C         16.31358        10.58894        -0.24058
C         16.11059        12.00112        -0.54985
C         17.24191         9.80326        -0.89611
C         17.22994        12.74102        -0.98829
C         16.06995        14.86019        -0.58770
C         16.07494        16.27681        -0.35657
C         17.25062        14.16336        -0.82489
C         17.23727        16.96164        -0.05764
C         15.97898        18.77403         0.99817
C         17.17708        18.25092         0.60418
C         18.07564         2.50835         1.53803
C         18.30785         3.72164         0.64197
C         19.41598         1.94677         1.95897
C         19.33082         4.56843         0.90895
C         18.59906         6.16501        -0.96068
C         18.45228         7.66451        -1.34036
C         19.40810         5.97754         0.34301
C         19.67047         8.50825        -0.94955
C         18.34180        10.47041        -1.71499
C         18.43459        12.01572        -1.45934
C         19.67676         9.79852        -1.36650
C         19.75407        12.76453        -1.40061
C         18.57637        14.81930        -0.46788
C         18.53217        16.33912        -0.42416
C         19.80125        14.30937        -1.23959
C         19.80854        17.10558        -0.31471
C         18.48241        18.76747         1.17023
C         19.75964        18.52404         0.29171
C         20.40816         2.79518         2.26582
C         20.19365         4.28586         2.12507
C         21.45236         5.11456         2.19547
C         20.87293         6.48814         0.18073
C         20.84828         8.01605        -0.11843
C         21.68147         6.18504         1.42705
C         22.14615         8.53598        -0.68265
C         20.97603        10.55631        -1.62053
C         20.94345        11.92805        -0.91406
C         22.19924         9.72904        -1.28563
C         22.21903        12.71428        -0.92062
C         21.06030        14.85645        -0.60514
C         21.16818        16.36295        -0.41172
C         22.22556        14.07147        -0.64974
C         21.98959        16.62312         0.81646
C         20.94238        18.79810         1.18184
C         21.86888        17.82085         1.51398
O         12.21165         8.12317         1.64162
O         18.34051         7.70635        -2.75091
O         12.33420         3.56116         1.72146
O         13.08909         2.73240        -1.57217
O          6.91720         9.95890        -1.37013
O         17.41610         4.19146        -1.73022
O          4.78126        13.93456        -1.89943
O          6.82295         5.57695         2.46011
O          2.85236         9.74671         2.66747
O          8.28401        11.41126         1.61641
O          8.64788        15.71580         1.28704
O          2.03981        13.38584        -1.25689
O         10.66463        10.19021         1.85358
O          4.70886         5.14669        -1.51284
O          9.52573         6.09010         2.36713
O          3.73656         9.42053        -0.79126
O         19.09709        17.06057        -1.59121
O         19.12293        12.52045        -2.67653
O          1.95950         4.71064         0.34519
O         14.74040        10.11491        -2.45964
O         20.67197         8.67458         1.18655
H         20.66744         9.65183         1.03054
O         21.03696        10.80933        -3.04424
H         20.96889         9.94379        -3.49985
O          3.83554        15.20331         1.38786
H          4.60745        15.79356         1.51995
O          4.82059        13.13440         1.62574
H          5.71569        13.28261         1.99340
O          6.82249         8.15308         2.64537
H          7.23361         7.34439         3.04198
O          3.94821        11.72987        -1.55479
H          3.33604        12.32058        -2.05317
O         18.64113        18.07492         2.41958
H         19.52249        18.30698         2.78486
O         10.86506        14.82823        -2.15555
H         10.22906        15.54723        -2.39164
O          7.00882         7.48143        -0.94059
H          6.75514         8.16586        -1.61046
O          1.88683        16.93652        -2.09977
H          2.57350        17.35023        -2.66326
O          8.07444         1.52799         1.39024
H          8.53182         2.01998         2.11617
O         19.39524         4.74744         3.27720
H         19.04542         5.63304         3.00957
O         12.23507        17.95160        -1.60005
H         13.16292        18.18243        -1.89547
O         11.42890        12.57635         1.84434
H         10.97578        11.92139         2.43250
O         13.88562         1.65186         2.11410
H         13.04533         1.88448         2.56004
O          7.69995        18.76898        -2.02085
H          7.03825        18.28250        -2.55525
O         15.65236         5.93697        -2.68647
H         16.13225         5.11845        -2.95020
O         19.80562        14.88056        -2.56517
H         19.45536        14.18750        -3.17685
O         21.84422        16.90715        -1.57872
H         21.23374        16.75272        -2.33503
O         19.72520        19.48652        -0.78015
H         19.44095        19.00120        -1.58780
O         17.40532         3.00062         2.73834
H         18.03747         3.62843         3.18170
O         18.00959        10.31752        -3.09422
H         18.73742        10.71472        -3.61864
O         14.92928        14.26576         1.37238
H         14.09098        13.90579         1.74251
O          9.51730         3.53565         2.52157
H          9.30539         4.36672         3.01730
O          4.22631         7.30012         3.03965
H          4.94748         7.89593         3.35100
O          4.59503         4.53719         2.05802
H          4.54194         5.08020         2.87647
O         18.80943        14.37253         0.90624
H         18.03102        14.62873         1.44744
O         14.55514        17.14543         1.98760
H         14.88275        16.23720         1.76812
O         20.63662        11.60812         0.49000
H         20.57559        12.45351         0.98744
O          9.32430         3.98717        -1.08634
H          8.69824         3.70041        -1.78651
O         18.76788         6.79046         1.37561
H         19.33760         7.58476         1.55654
O          7.48309        12.51078        -1.74552
H          6.59515        12.65007        -2.14943
O         14.90467        17.98077        -1.59372
H         15.56647        17.61095        -2.21672
O         21.59758         5.81932        -0.86243
H         20.95947         5.60162        -1.59208
O         12.15867        18.04102         2.52666
H         13.04138        17.62130         2.70458
O         19.33821         5.59609        -2.05898
H         19.05307         6.15923        -2.83862
O          8.02241        19.37235         1.53034
H          8.76380        19.61399         2.12260
O          9.71514        17.26571        -1.86976
H         10.31146        17.98618        -2.17090
O         15.62524        10.07614         0.83266
H         15.08173        10.77541         1.24874
O         11.33016        16.10905         1.23116
H         10.47456        15.82426         1.63939
H          1.11355         2.33319        -3.36813
H          0.47982         3.69103        -1.35605
H          3.47593         1.60001        -3.65140
H          0.27723         6.04102         1.54369
H          0.48553         8.30099         2.57040
H          0.29578        10.27708         1.51418
H          0.20048        12.46746         0.49440
H          0.37311        14.62228         0.91951
H          0.38514        17.01063         0.46299
H          1.45449        19.12958        -0.35250
H          5.63511         1.34529        -2.69154
H          3.58945        20.31548        -0.23634
H          7.67031         0.77827        -1.52580
H          6.02496        20.32677        -0.32505
H          9.91044         0.21380        -0.35110
H          8.67608        20.28074        -0.24245
H         12.26691         0.11674        -0.36187
H         10.64945        20.14744         1.23697
H         14.61030         0.80609        -1.02834
H         13.38399        19.44338        -0.25438
H         17.14605         0.47166         1.29878
H         15.96778        19.66682         1.64234
H         19.54465         0.85809         2.06266
H         18.40865        19.87486         1.36182
H         21.38594         2.42743         2.61314
H         22.12669         4.89514         3.03902
H         22.58674         6.79074         1.59195
H         23.05908         7.94017        -0.53260
H         23.15845        10.10042        -1.68025
H         23.17482        12.18073        -1.01817
H         23.19878        14.56444        -0.49989
H         22.74538        15.88982         1.12895
H         20.99495        19.78700         1.66153
H         22.59508        18.03343         2.31475
