         404
 CSIRO Nanostructure Databank - Neutral Graphene Oxide Data Set
C          1.45722         2.32180         1.97135
C          1.46706         3.72012         1.99645
C          2.64219         1.59859         1.88487
C          2.67804         4.44207         1.92771
C          1.54931         6.67177         2.13741
C          1.59207         8.04654         2.16977
C          2.72726         5.88831         1.97422
C          2.81935         8.76565         2.05274
C          1.66177        10.98351         1.95278
C          1.68587        12.33931         2.13428
C          2.84427        10.18849         2.05127
C          2.94047        13.06792         2.34286
C          1.75356        15.39562         2.10859
C          1.79563        16.73476         1.83315
C          2.97825        14.61184         2.30798
C          3.02988        17.44742         1.78306
C          3.07555        18.83937         1.58306
C          3.88929         2.26681         1.81984
C          3.90348         3.70931         1.83341
C          5.09592         1.52942         1.70710
C          5.13703         4.40148         1.76830
C          3.97120         6.56522         1.84378
C          4.02936         8.00028         1.88482
C          5.18422         5.81607         1.69665
C          5.26554         8.65025         1.64810
C          4.12511        10.89463         2.17317
C          4.19873        12.36326         2.02778
C          5.39855        10.09113         1.89092
C          5.39364        13.01655         1.75552
C          4.26677        15.22513         1.94321
C          4.28323        16.69738         1.95378
C          5.42902        14.48885         1.70580
C          5.59201        17.40984         1.58661
C          4.26319        19.50910         1.30610
C          5.49306        18.81460         1.14414
C          6.35035         2.16421         1.65255
C          6.38315         3.63137         1.80690
C          7.55874         1.47213         1.48166
C          7.67931         4.35666         1.41189
C          6.40903         6.49578         1.36294
C          6.42021         7.92619         1.26846
C          7.59114         5.77990         1.07333
C          7.60439         8.61809         0.85704
C          6.55234        10.82240         1.35642
C          6.57608        12.23921         1.36679
C          7.64509        10.05940         0.85440
C          7.75719        12.90058         0.92027
C          6.64785        15.17156         1.31651
C          6.72076        16.56790         1.15077
C          7.85556        14.36640         1.05447
C          7.82290        17.22674         0.50269
C          6.60853        19.41169         0.57424
C          7.77748        18.65413         0.26022
C          8.78157         2.12070         1.11459
C          8.79511         3.55505         0.90432
C          9.95297         1.38107         0.91890
C          9.87644         4.22434         0.32680
C          8.72540         6.42362         0.50801
C          8.72671         7.87026         0.39708
C          9.85842         5.64318         0.15817
C          9.87112         8.55662        -0.07899
C          8.80578        10.73610         0.38653
C          8.85194        12.16685         0.40363
C          9.92517         9.96883        -0.07156
C          9.97203        12.83917        -0.23489
C          9.05225        15.06648         0.37741
C          8.93987        16.49603         0.02091
C          9.99914        14.22734        -0.35721
C          9.95746        17.12252        -0.73108
C          8.85724        19.29461        -0.35390
C          9.95541        18.56118        -0.88684
C         11.10831         1.94494         0.23180
C         11.05259         3.46099        -0.14398
C         12.42886         1.34378         0.32452
C         12.33226         4.16836        -0.32407
C         11.00755         6.27235        -0.50734
C         11.01261         7.79929        -0.62552
C         12.30494         5.56655        -0.51814
C         12.30565         8.47466        -0.76077
C         11.10612        10.63967        -0.53661
C         11.09058        12.04798        -0.71533
C         12.30055         9.89996        -0.80308
C         12.24513        12.68642        -1.23174
C         10.94876        14.88528        -1.26599
C         11.04234        16.36744        -1.31400
C         12.13720        14.05796        -1.74472
C         12.07963        16.99864        -1.97570
C         10.96169        19.20569        -1.59884
C         12.03754        18.47039        -2.32664
C         13.58698         2.01951        -0.07849
C         13.55591         3.44736        -0.37175
C         14.83321         1.33985        -0.11771
C         14.77058         4.14411        -0.60357
C         13.49955         6.27872        -0.78796
C         13.49997         7.71587        -0.92178
C         14.74111         5.56729        -0.82090
C         14.73481         8.38114        -1.15930
C         13.49802        10.60866        -1.09787
C         13.47060        11.98953        -1.31984
C         14.76700         9.85594        -1.17121
C         14.76696        12.75743        -1.43938
C         13.35607        14.76520        -2.25947
C         13.27982        16.27105        -2.45488
C         14.66914        14.13954        -2.04208
C         14.57101        17.04103        -2.53434
C         13.35732        19.14358        -2.04467
C         14.57480        18.47782        -2.15096
C         16.03598         2.00760        -0.41627
C         16.01905         3.43256        -0.63090
C         17.27548         1.31579        -0.47395
C         17.24503         4.11173        -0.82063
C         15.94560         6.27510        -1.05000
C         15.93805         7.66569        -1.28567
C         17.23539         5.58358        -0.87679
C         17.16813         8.32803        -1.80954
C         15.98740        10.56892        -1.64037
C         15.83484        11.96305        -2.20649
C         17.17289         9.79598        -2.12443
C         17.16357        12.69065        -2.17412
C         15.86121        14.81035        -2.18268
C         15.88683        16.27722        -2.42836
C         17.12231        14.08480        -2.07813
C         17.08135        17.04354        -2.06384
C         15.81837        19.14841        -2.05921
C         17.07139        18.46273        -2.09422
C         18.47766         1.98886        -0.72235
C         18.47390         3.41647        -0.88212
C         19.72395         1.28401        -0.83492
C         19.71754         4.10220        -1.13551
C         18.52460         6.30795        -1.17657
C         18.48397         7.68991        -1.69974
C         19.74463         5.50635        -1.36851
C         19.64138         8.36889        -2.03718
C         18.45191        10.53927        -2.24068
C         18.38386        11.95495        -2.25065
C         19.68020         9.80850        -2.27525
C         19.62255        12.72199        -2.47168
C         18.36992        14.80983        -1.82592
C         18.33080        16.35357        -1.77518
C         19.65053        14.15000        -2.13658
C         19.57080        17.07658        -2.01181
C         18.30876        19.16600        -1.98134
C         19.55712        18.49506        -2.01245
C         20.90678         1.93826        -1.08914
C         20.93290         3.37079        -1.23034
C         22.16741         1.13998        -1.32590
C         22.17058         4.06994        -1.38574
C         20.93298         6.16966        -1.68809
C         20.90214         7.59063        -2.10589
C         22.17362         5.47672        -1.59732
C         22.21459         8.35193        -2.11058
C         20.94628        10.49806        -2.29406
C         20.96642        11.97216        -2.49847
C         22.16875         9.83158        -2.07203
C         22.16550        12.76553        -2.18532
C         20.84317        14.85001        -2.14304
C         20.80372        16.32971        -2.20083
C         22.12788        14.16395        -2.13947
C         22.10814        17.11698        -1.99386
C         20.80050        19.20749        -1.83098
C         22.01066        18.55335        -1.64972
C         23.44013         1.93465        -1.14202
C         23.41892         3.36277        -1.24845
C         24.63244         1.26393        -0.95387
C         24.63389         4.08808        -1.15285
C         23.41246         6.21907        -1.53737
C         23.41986         7.63624        -1.65442
C         24.62092         5.52766        -1.23716
C         24.57934         8.38122        -1.35336
C         23.40009        10.52906        -1.87808
C         23.43946        12.00852        -2.08748
C         24.57002         9.83542        -1.51248
C         24.69963        12.77530        -1.81753
C         23.31515        14.95291        -1.78874
C         23.26955        16.31920        -1.58643
C         24.62555        14.26406        -1.59803
C         24.27466        17.04446        -0.76240
C         23.20644        19.22575        -1.23219
C         24.34441        18.53030        -0.83478
C         25.87765         1.96156        -0.86178
C         25.86514         3.39088        -0.96031
C         27.09196         1.26764        -0.67392
C         27.09874         4.10609        -0.86692
C         25.80855         6.26887        -0.98051
C         25.76207         7.68076        -0.97812
C         27.06855         5.56089        -0.77349
C         26.95984         8.46454        -0.60075
C         25.75124        10.56475        -1.10954
C         25.89740        12.02117        -1.30820
C         26.73182         9.91572        -0.37259
C         27.05169        12.74859        -0.63194
C         25.70487        14.94958        -0.80611
C         25.43511        16.30307        -0.20109
C         26.80175        14.14684        -0.17588
C         26.62710        17.08286         0.27999
C         25.57283        19.18713        -0.52709
C         26.72805        18.52350        -0.08573
C         28.32881         1.95449        -0.61938
C         28.30156         3.38477        -0.74739
C         29.57478         1.27957        -0.47604
C         29.58311         4.08300        -0.78967
C         28.21618         6.25248        -0.42421
C         28.21753         7.72383        -0.21990
C         29.53196         5.61643        -0.57425
C         29.37404         8.28072         0.54337
C         27.62830        10.68916         0.43863
C         27.94642        12.00068         0.28381
C         29.40527         9.54287         1.10253
C         29.06103        12.62113         1.16276
C         27.89219        14.82563         0.60380
C         27.86924        16.33087         0.63541
C         29.16982        14.10379         0.83453
C         29.16379        17.01927         0.37948
C         27.96322        19.18519         0.12837
C         29.17075        18.50361         0.40930
C         30.82265         1.96266        -0.38000
C         30.82800         3.39551        -0.45487
C         32.06566         1.30030        -0.23407
C         32.01307         4.13551        -0.26638
C         30.73333         6.22049        -0.01164
C         30.60904         7.52186         0.61708
C         31.95962         5.56432        -0.03275
C         31.91411         8.35120         0.85350
C         30.55078        10.43352         1.04922
C         30.42491        11.89268         1.03530
C         31.78048         9.80339         0.81342
C         31.59969        12.65877         0.98427
C         30.35966        14.78737         0.88886
C         30.42491        16.23279         0.55154
C         31.61051        14.09225         1.06627
C         31.65117        16.96973         0.89875
C         30.41419        19.13423         0.54916
C         31.62549        18.42426         0.79395
C         33.28892         2.01996        -0.15883
C         33.26017         3.45805        -0.14124
C         34.54585         1.36807        -0.07133
C         34.47006         4.21002        -0.02572
C         33.17983         6.30841         0.20088
C         33.15737         7.69779         0.44232
C         34.43431         5.63878         0.07243
C         34.35430         8.47362         0.42356
C         32.99077        10.55814         0.48928
C         32.91836        12.05805         0.66955
C         34.29742         9.88469         0.57852
C         34.17189        12.75999         1.02949
C         32.82824        14.82250         1.21643
C         32.77966        16.27242         1.26974
C         34.08969        14.16309         1.30369
C         33.95998        17.03814         1.81569
C         32.85247        19.09998         0.85406
C         34.05235        18.42964         1.20600
C         35.75721         2.09578         0.00160
C         35.71872         3.53450         0.01804
C         37.02033         1.45342         0.06881
C         36.92926         4.28602         0.06001
C         35.64689         6.39134         0.09824
C         35.60883         7.82652         0.25138
C         36.88006         5.70379         0.03173
C         36.78645         8.61399         0.33383
C         35.46792        10.64980         0.75565
C         35.38405        12.06010         1.04980
C         36.73780         9.98329         0.66473
C         36.61175        12.71869         1.62732
C         35.32039        14.91939         1.53461
C         35.26691        16.29100         1.74307
C         36.58966        14.22497         1.55209
C         36.48470        17.07617         2.16076
C         35.27157        19.07537         1.12607
C         36.50024        18.47640         1.55998
C         38.22263         2.18700         0.12928
C         38.19333         3.61431         0.10603
C         39.49569         1.52553         0.22235
C         39.41588         4.36197         0.17264
C         38.12783         6.46401        -0.11745
C         38.07867         7.98110         0.02671
C         39.41037         5.78461         0.11039
C         39.32179         8.68823         0.36555
C         37.96899        10.74031         0.81545
C         37.91587        12.09539         1.16959
C         39.24291        10.07717         0.66287
C         39.12143        12.85425         1.31251
C         37.80771        14.92187         1.70739
C         37.79706        16.36450         1.91087
C         39.05803        14.24306         1.64716
C         38.96167        17.09526         1.95455
C         37.66543        19.18026         1.57098
C         38.88997        18.58866         2.20919
C         40.66260         2.23948         0.30287
C         40.65714         3.67207         0.28172
C         41.85153         4.43168         0.35319
C         40.60042         6.53469         0.22463
C         40.55381         7.99711         0.33090
C         41.82336         5.81428         0.34119
C         41.73876         8.76472         0.51037
C         40.44957        10.82194         0.82328
C         40.38204        12.22316         1.08897
C         41.68910        10.12482         0.72032
C         41.57856        13.03356         1.11006
C         40.32303        14.96504         2.06156
C         40.26195        16.46451         1.85186
C         41.56128        14.32662         1.49923
C         41.38414        17.23485         1.70509
C         40.14515        19.32747         1.83758
C         41.30693        18.67537         1.62347
O          9.02627        14.80921         1.81982
O         18.02803         6.21136         0.21881
O         31.24192         7.64001         1.93271
O         24.24971        16.46144         0.62101
O         38.12008         7.34830        -1.29866
O         32.90748        11.45703        -0.67438
O         21.64286         7.80677        -3.35258
O          7.33615         4.08217         2.81907
O         28.09002         8.35108        -1.57331
O         10.97292        14.25474        -2.59488
O         25.74072        14.98030        -2.25684
O         29.86758        16.49645        -0.79934
O         15.80012        10.41497        -0.19864
O         10.77784         2.44663        -1.13242
O          2.99273        13.86319         3.57341
O         26.74706        14.20555         1.28774
O         18.35913        15.51949        -0.53796
O         28.17784        10.02360         1.53240
O         15.34027        16.73883        -3.72747
O         16.90433         8.85017        -3.19672
O         29.72472         5.02702        -1.89614
O         21.61456        16.83126        -3.32788
O         27.12324        12.44074        -2.03532
O         27.03414        16.87605         1.68686
O          5.19051        17.23498         2.97649
O         10.66917         6.93566        -1.77253
O         13.12530        15.35656        -3.58053
O         20.29555        12.40057        -3.72850
O         24.36407        12.39300        -3.18476
O          4.99845        10.43381         3.25920
O         11.75463        18.55817        -3.76991
H         12.26779        17.85461        -4.22313
O         38.71341        18.75119         3.67415
H         39.48943        18.32836         4.10188
O         36.37860        17.26686         3.61670
H         37.13986        17.85524         3.87533
O         28.65860        12.52378         2.55038
H         27.82407        13.03800         2.64110
O         40.41145        14.80151         3.53325
H         40.53312        13.84373         3.70789
O         15.38811        11.83604        -3.57083
H         16.06375        11.34288        -4.08253
O         15.22069        12.98652        -0.08003
H         15.42278        12.10074         0.31508
O         22.18336        -0.04665        -0.52562
H         22.19603         0.21934         0.41635
O         36.54449        12.41430         3.08434
H         37.20632        12.98509         3.53098
O         33.67576        17.23046         3.24106
H         34.54426        17.39944         3.68715
H          0.49715         1.78953         2.02309
H          0.50823         4.25027         2.06970
H          2.61992         0.49961         1.86838
H          0.57589         6.17585         2.24945
H          0.65385         8.59793         2.31715
H          0.69131        10.49133         1.80060
H          0.73803        12.89212         2.18171
H          0.78375        14.90382         2.26293
H          0.85886        17.29731         1.70665
H          2.12879        19.39922         1.57076
H          5.04395         0.43215         1.64237
H          4.23738        20.58557         1.08397
H          7.54272         0.37183         1.48901
H          6.57592        20.47442         0.29171
H         10.00270         0.33912         1.26816
H          8.82296        20.38406        -0.50215
H         12.51752         0.33210         0.74815
H         10.91968        20.29944        -1.71394
H         14.85421         0.25806         0.08061
H         13.35635        20.21193        -1.77917
H         17.28619         0.22617        -0.32288
H         15.82026        20.23963        -1.92100
H         19.72685         0.18845        -0.73388
H         18.29237        20.26273        -1.90412
H         22.14408         0.79070        -2.39824
H         20.74891        20.29403        -1.66552
H         24.62484         0.16639        -0.87967
H         23.21046        20.32607        -1.21328
H         27.07627         0.17114        -0.58635
H         25.62340        20.27499        -0.68860
H         29.57123         0.18058        -0.42323
H         27.99743        20.27893         0.00676
H         32.09025         0.20114        -0.20304
H         30.46408        20.23223         0.49033
H         34.58160         0.26848        -0.07537
H         32.89740        20.16759         0.58912
H         37.06256         0.35385         0.07715
H         35.30673        20.11713         0.76925
H         39.51729         0.42608         0.23680
H         37.70244        20.20956         1.18379
H         41.62703         1.71672         0.38117
H         42.81471         3.90683         0.43114
H         42.77458         6.35725         0.42032
H         42.72165         8.27700         0.46999
H         42.63457        10.66965         0.84210
H         42.52658        12.59328         0.77127
H         42.50449        14.88968         1.51041
H         42.38154        16.78125         1.63950
H         40.10302        20.42628         1.81127
H         42.22775        19.23363         1.40072
