         260
 CSIRO Nanostructure Databank - Neutral Graphene Oxide Data Set
C         30.48791        31.76009         1.25682
C         30.56262        33.01745         1.21643
C         30.52252        36.22320         0.79364
C         30.55428        37.47450         0.84548
C         30.56878        41.10612         1.03549
C         30.38342        42.06747         0.18156
C         32.83702        28.91845         0.88418
C         31.72111        29.47893         1.01300
C         32.80728        31.60164         0.70684
C         31.56630        30.88636         1.01079
C         32.78134        33.02905         0.50181
C         31.64521        33.81723         0.78867
C         32.62337        35.72079        -0.39885
C         31.74170        35.32394         0.82527
C         32.67172        37.18173        -0.87306
C         31.03378        38.72198         1.24934
C         32.47623        40.32269        -0.44736
C         31.26742        39.90646         0.41637
C         32.60359        41.81986        -0.89116
C         31.31504        42.69874        -0.61608
C         32.73038        44.69085        -0.92603
C         31.64864        44.02592        -0.86066
C         35.60849        27.43524         1.18963
C         35.38289        28.81128         0.99689
C         34.12984        29.48317         0.78058
C         35.35297        31.64909         0.67079
C         34.06524        30.89233         0.68667
C         35.28536        33.04141         0.13675
C         33.95451        33.60387        -0.30895
C         35.05619        35.82153        -1.10085
C         34.04122        35.14422        -0.16588
C         35.08689        37.34492        -0.77852
C         33.89506        38.00869        -0.63243
C         35.08358        40.28702        -0.62015
C         33.78082        39.52225        -0.68901
C         35.10611        41.73571        -0.17197
C         33.82097        42.51688        -0.25230
C         35.22133        44.67327        -0.27911
C         33.89378        44.03764        -0.24873
C         35.45475        46.07399        -0.43875
C         37.90647        27.47309         1.79903
C         36.69968        26.84225         1.42561
C         37.70600        28.86763         1.76447
C         36.58689        29.56140         1.22215
C         37.86325        31.62099         0.43402
C         36.67148        30.95311         0.79968
C         37.77658        32.91281        -0.35118
C         36.47395        33.62162        -0.57127
C         37.69726        35.86944        -0.93216
C         36.42195        35.09106        -0.99967
C         37.64599        37.33811        -0.65020
C         36.37921        38.11581        -1.03198
C         37.61808        40.28543        -0.75759
C         36.36695        39.49841        -0.32496
C         37.66568        41.76894        -0.57171
C         36.41822        42.49012        -0.12198
C         37.73393        44.67451        -0.41882
C         36.41942        43.97293        -0.26507
C         37.79632        46.21158        -0.43524
C         36.45894        46.79261        -0.26970
C         40.76977        25.24221         2.83285
C         39.63821        25.73103         2.68570
C         40.61216        27.64181         1.49720
C         39.27813        26.88835         1.86070
C         40.61962        29.07262         1.05075
C         39.52932        29.93554         1.27446
C         40.28440        31.51182        -0.40319
C         39.19029        31.04512         0.47847
C         40.24552        32.94866        -0.92088
C         39.04614        33.72251        -0.46872
C         40.24173        35.92265        -1.26883
C         39.02054        35.20287        -0.64880
C         40.26207        37.37461        -0.82931
C         38.96280        38.06690        -0.60286
C         40.25037        40.28752        -0.60260
C         38.93431        39.54620        -0.84375
C         40.26377        41.72480        -0.24062
C         38.96745        42.41982        -0.18143
C         40.30417        44.58361         0.00139
C         38.97912        43.93096        -0.01676
C         40.34504        46.07640         0.04178
C         39.05706        46.88719        -0.01908
C         40.44136        48.87862        -0.30293
C         39.35933        48.28209        -0.38063
C         43.38943        25.28600         2.59646
C         42.04588        25.79308         2.48796
C         43.17116        27.74768         1.35729
C         41.93925        27.02827         1.82838
C         43.05377        28.98689         0.48933
C         41.71735        29.60523         0.30858
C         42.74756        31.46849        -0.99557
C         41.58874        30.82872        -0.33261
C         42.79453        32.96112        -0.93502
C         41.53230        33.70896        -1.37752
C         42.68923        35.83478        -0.63844
C         41.53944        35.19484        -0.91724
C         42.83087        37.38704        -0.72137
C         41.42950        38.07088        -0.56991
C         42.41571        40.03588         0.61921
C         41.36056        39.43769        -0.19070
C         42.57125        41.56411         0.69999
C         41.42035        42.38447         0.17037
C         42.67515        44.59448         0.78414
C         41.43884        43.83398         0.27293
C         42.93700        45.86028        -0.07186
C         41.67607        46.73188        -0.28615
C         43.07165        48.80557        -0.10316
C         41.75726        48.26560        -0.49562
C         44.37265        25.83651         2.06120
C         45.54860        27.50041         0.54680
C         44.48576        27.00651         1.25942
C         45.43063        28.68635        -0.37641
C         44.16067        29.40506        -0.36668
C         45.32373        31.46970        -1.15526
C         44.07019        30.68847        -1.06367
C         45.22262        32.85131        -0.60362
C         43.93966        33.60689        -0.62595
C         45.07622        35.69871         0.31335
C         44.04054        35.13439        -0.68882
C         45.02261        37.15480         0.75729
C         43.80417        37.92396         0.34817
C         45.38733        40.12458         1.34785
C         43.51843        39.11290         0.93857
C         45.21705        41.43816         0.58577
C         43.93642        42.23652         0.94199
C         45.28282        44.46079         0.62176
C         43.97057        43.74024         0.88573
C         45.28275        45.95358         0.85156
C         44.14408        46.65384         0.53008
C         43.94899        48.03525         0.33327
C         47.92791        27.66678         0.20188
C         46.91069        27.07352         0.59554
C         48.07246        28.73860        -0.72927
C         46.69418        29.35379        -1.04588
C         47.73465        31.70203        -1.41776
C         46.58605        30.85266        -1.26092
C         47.65520        33.20823        -1.21501
C         46.48345        33.59991        -0.34292
C         47.65595        35.82485         0.25816
C         46.40009        34.99148         0.25606
C         47.67221        37.05893         1.13576
C         46.34548        37.82241         1.23530
C         47.77823        39.97533         1.30195
C         46.46380        39.30120         1.14471
C         47.83658        41.42116         0.92011
C         46.57577        42.18518         0.63136
C         47.85567        44.37113         1.13179
C         46.59571        43.69256         0.66204
C         47.63697        45.73709         1.16828
C         46.60023        46.45015         1.02691
C         50.59735        29.11983        -1.29447
C         49.16979        29.08785        -1.45661
C         50.17009        31.92705        -1.98523
C         48.95727        31.24897        -1.99154
C         50.13307        33.36282        -1.56013
C         48.98046        33.74595        -0.62428
C         50.24170        35.89227        -0.02761
C         48.91192        35.25008        -0.32856
C         50.28932        37.11583         0.83910
C         49.00769        37.73119         1.39823
C         50.32704        40.00422         1.58109
C         49.03724        39.23765         1.64376
C         50.35601        41.34521         1.38342
C         49.06055        42.11178         1.45254
C         50.39278        44.12321         1.62371
C         49.01783        43.63097         1.62474
C         51.47885        29.95352        -1.54836
C         52.51957        32.23060        -2.30078
C         51.48133        31.18412        -2.45291
C         52.50508        33.42664        -2.02289
C         51.33927        34.26564        -1.68792
C         52.63731        36.11673        -0.36984
C         51.37921        35.65351        -1.07257
C         52.61749        37.13888         0.32248
C         51.51038        38.07741         0.64871
C         52.78163        40.01690         1.69346
C         51.60919        39.05448         1.87505
C         52.77317        41.24257         1.55943
C         51.70802        42.13563         1.05672
C         51.45873        43.49588         1.66536
O         37.92863        45.43764        -1.65222
O         43.28568        37.62893        -1.99096
O         35.35805        32.86920         1.57345
O         45.86344        28.46117        -1.80117
O         39.64066        46.55418         1.25559
O         48.90506        29.95624        -2.55512
O         44.01169        43.00908         2.16227
O         50.62071        35.79906         1.36866
O         38.77184        43.06252         1.13019
O         43.39079        29.05856         1.96939
O         39.85541        26.78996         0.53765
O         37.17786        35.40192        -2.20824
O         43.16218        30.82793        -2.22709
O         51.48715        38.42329         3.01416
O         48.75768        42.72384         2.74300
O         41.53288        33.78260        -2.74335
O         42.02696        40.80267         1.81795
O         44.28296        39.59034         2.00678
O         39.86582        31.86795        -1.77883
O         34.47426        40.03210        -1.90208
O         45.38237        37.28426         2.16327
O         38.70635        29.63664         2.36540
O         35.81092        41.93188         1.09538
O         37.02389        32.75253        -1.59690
O         50.32468        34.24534        -2.73737
O         39.74154        39.96699        -1.95175
O         37.48580        41.19300        -1.89291
O         41.75487        47.36929        -1.61716
O         38.24915        37.65669         0.62150
O         45.55165        34.90941         1.43067
O         48.18561        39.73236         2.70642
O         31.82685        37.54282        -1.67485
O         46.01850        32.67257         0.66611
O         39.25606        34.63295         0.66713
O         31.24903        39.77005        -1.00984
O         46.00569        44.16558        -0.60634
O         33.55783        43.27991         0.94941
O         48.36877        36.91255         2.40335
O         47.45932        41.70415        -0.45535
O         48.04989        36.08345        -1.14562
O         36.47375        38.30762        -2.44935
H         35.73336        38.89534        -2.73670
O         44.60354        35.41114        -1.98397
H         44.18640        36.25747        -2.32995
O         51.26643        38.87256        -0.49728
H         51.32900        38.29901        -1.30268
O         32.79753        41.84546        -2.29733
H         32.16816        41.21941        -2.71443
O         51.13350        36.59792        -2.11857
H         51.52886        36.27047        -2.95439
O         34.55911        35.46598         1.13067
H         34.39934        34.73043         1.76235
O         31.99343        35.04120        -1.50119
H         31.53698        35.73831        -2.03720
O         42.36924        45.06281         2.10130
H         42.45284        44.30543         2.72369
O         40.08063        35.92393        -2.69001
H         40.60937        35.15584        -3.06231
O         34.60457        35.71434        -2.45069
H         35.39665        35.79036        -3.03293
O         51.37612        30.73935        -3.77044
H         50.57586        30.17420        -3.85004
O         43.36976        45.38824        -1.34623
H         43.21933        46.10342        -2.00741
O         33.80353        33.19235        -1.66553
H         33.08159        33.73132        -2.07258
O         49.19422        33.07486         0.62883
H         49.71664        33.64530         1.23451
O         36.39723        39.28485         1.08913
H         36.31984        40.16192         1.53908
O         51.77488        42.26447        -0.34158
H         52.70301        42.41667        -0.61150
O         32.33411        35.66543         2.08540
H         31.89477        35.13708         2.78452
O         31.17862        38.93135         2.56774
H         30.86639        38.16040         3.08291
O         44.97355        41.04657        -0.78521
H         45.84325        41.01216        -1.25129
O         47.41788        33.81908        -2.49408
H         48.26884        34.01395        -2.94405
