         210
 CSIRO Nanostructure Databank - Neutral Graphene Oxide Data Set
C         30.75921        31.73145         2.37490
C         30.69251        32.91558         1.96805
C         30.48830        35.96377         1.08751
C         30.44511        37.19404         0.82641
C         30.38474        40.23836        -0.16505
C         30.43505        41.40655        -0.58285
C         33.37715        29.09209         2.48545
C         32.26107        29.62544         2.71462
C         33.05952        31.64654         1.70886
C         31.93687        30.94216         2.31750
C         32.94388        33.04645         1.35091
C         31.71776        33.75961         1.47051
C         32.82543        35.92171         0.91076
C         31.63735        35.15127         1.15978
C         32.78409        37.34578         0.68634
C         31.54619        38.04993         0.63774
C         32.81269        40.25191         0.12960
C         31.49857        39.50435         0.44496
C         32.81952        41.56143        -0.59453
C         31.57331        42.20379        -0.93934
C         32.86581        43.97379        -1.67860
C         31.71267        43.47157        -1.53208
C         36.01145        27.57527         1.73825
C         35.72490        28.91898         1.47520
C         34.51355        29.61768         1.82847
C         35.30591        31.62143         0.55723
C         34.29296        30.96385         1.46307
C         35.34209        33.11766         0.71793
C         34.12301        33.79368         0.96808
C         35.28564        35.94157         0.66931
C         34.07214        35.21474         0.85516
C         35.26551        37.36727         0.57668
C         34.02942        38.07649         0.50575
C         35.29396        40.12832         0.00962
C         34.05786        39.45386         0.17153
C         35.37757        41.42925        -0.75879
C         34.06874        42.19331        -0.84938
C         35.38992        44.32472        -1.38722
C         34.14713        43.49280        -1.40937
C         35.86636        44.93387        -2.73229
C         38.06321        27.42777         0.49338
C         37.00602        26.95369         1.25091
C         37.98643        28.85901         0.33344
C         36.81224        29.58429         0.78843
C         37.75925        31.72100         0.03804
C         36.67352        30.97773         0.53143
C         37.74533        33.14852         0.07829
C         36.52880        33.83013         0.45381
C         37.75142        35.98338         0.48209
C         36.51814        35.25449         0.52045
C         37.73947        37.37502         0.66778
C         36.50072        38.08136         0.59104
C         37.71547        40.28096         0.55297
C         36.48401        39.48555         0.35796
C         37.77519        41.66778         0.05395
C         36.60002        42.28072        -0.44601
C         37.88322        44.34876        -0.81022
C         36.66303        43.60559        -0.88710
C         37.93098        45.61567        -1.60782
C         36.92144        45.58907        -2.61987
C         40.44535        24.73569        -0.58006
C         39.60396        25.37249         0.09255
C         40.07834        27.43144        -1.04568
C         38.91255        26.63222        -0.43269
C         40.17167        28.85960        -0.94194
C         39.04198        29.53242        -0.34807
C         40.17947        31.76801        -0.83376
C         38.92271        30.98745        -0.50805
C         40.15684        33.25191        -0.61630
C         38.93184        33.92006        -0.13397
C         40.24495        36.02177         0.26498
C         38.98481        35.28603         0.20539
C         40.26833        37.40686         0.58414
C         39.01426        38.06046         1.10809
C         40.26159        40.30834         0.75401
C         38.99269        39.57380         0.92894
C         40.20351        41.68986         0.57357
C         38.98325        42.39259         0.20105
C         40.27722        44.51889         0.03584
C         39.02424        43.78464        -0.15564
C         40.31634        45.91973        -0.01547
C         38.59869        46.72446        -1.14445
C         40.29656        48.41502        -1.31348
C         39.26027        47.85140        -1.72938
C         42.62660        24.95604        -2.05764
C         41.36813        25.29827        -1.52732
C         42.79739        27.82255        -2.21265
C         40.99467        26.65889        -1.79626
C         42.69289        29.04765        -1.53391
C         41.40472        29.63486        -1.20046
C         42.68930        31.70243        -0.66469
C         41.45317        31.02258        -0.89552
C         42.65447        33.09801        -0.15596
C         41.46261        33.95580        -0.40542
C         42.71611        36.00738         0.27650
C         41.47211        35.34030         0.10374
C         42.72342        37.42652         0.46127
C         41.48702        38.12681         0.61573
C         42.74590        40.24165         0.81661
C         41.51089        39.57057         0.77875
C         42.75962        41.70720         0.99570
C         41.44228        42.45777         0.78086
C         42.72238        44.56607         0.45113
C         41.50675        43.86372         0.36606
C         42.74470        45.99022         0.17396
C         41.52512        46.66780        -0.17283
C         42.78310        48.64679        -0.62998
C         41.52724        48.03291        -0.70046
C         43.61809        25.64616        -2.40630
C         45.17303        27.62370        -1.79595
C         43.95951        27.01485        -2.20867
C         45.17195        28.99890        -1.40358
C         43.94687        29.69729        -1.22608
C         45.19037        31.73150        -0.41310
C         43.93416        31.05135        -0.75035
C         45.19761        33.09571        -0.03240
C         43.93552        33.81700         0.17213
C         45.18956        35.96602         0.31315
C         43.94932        35.29078         0.22430
C         45.20198        37.40054         0.41208
C         43.97117        38.12076         0.49423
C         45.23795        40.22786         0.65554
C         43.98685        39.53824         0.66689
C         45.28048        41.68234         1.06867
C         44.01056        42.46439         0.77923
C         45.26825        44.58400         0.37322
C         43.97435        43.83258         0.64894
C         45.17601        46.07781         0.86970
C         43.97488        46.72364         0.25943
C         43.79107        48.03123        -0.15388
C         47.44781        27.58611        -1.24603
C         46.45635        26.98056        -1.73750
C         47.68830        28.89691        -0.84562
C         46.48766        29.75725        -1.28178
C         47.63310        31.66260        -0.05291
C         46.42888        31.04845        -0.50625
C         47.60949        33.04228         0.27278
C         46.41189        33.79405         0.18111
C         47.65665        35.94148         0.49579
C         46.42081        35.23535         0.34725
C         47.67688        37.37062         0.49052
C         46.44062        38.10127         0.43143
C         47.72493        40.25851         0.16246
C         46.43633        39.53224         0.49191
C         47.74931        41.72247         0.55699
C         46.56561        42.39297         0.70890
C         47.83556        44.60643         0.85221
C         46.52090        43.86109         0.87715
C         47.60085        46.01438         0.50154
C         46.53534        46.63074         0.50705
C         50.11681        28.89608        -0.20676
C         48.84519        29.49902        -0.34846
C         50.10761        31.49946         0.42896
C         48.88703        30.90167         0.02804
C         50.09637        32.91716         0.89202
C         48.80614        33.73102         0.78945
C         50.09813        35.87706         0.88223
C         48.87265        35.20552         0.70684
C         50.13592        37.32265         0.81246
C         48.93116        38.07804         0.61978
C         50.20298        40.21033         0.57358
C         48.97660        39.49874         0.54243
C         50.25990        41.66470         0.45581
C         49.03617        42.41813         0.51864
C         50.34226        44.36014         0.43641
C         49.05236        43.84051         0.60516
C         51.22862        29.40944         0.06757
C         52.51173        31.59292         0.63776
C         51.37161        30.77730         0.39860
C         52.45344        32.82805         0.85295
C         51.35845        33.71139         0.94440
C         52.46871        35.94622         1.12261
C         51.32936        35.09439         1.03106
C         52.49736        37.18581         1.04377
C         51.36974        38.04672         0.87764
C         52.56358        40.25898         0.66784
C         51.41050        39.43912         0.72802
C         52.67398        41.48982         0.48653
C         51.54127        42.34999         0.39893
C         51.44279        43.75444         0.34494
O         39.24424        31.39859        -1.89434
O         40.86487        33.90000        -1.74066
O         32.16308        40.28863         1.45754
O         43.08592        33.20097         1.23950
O         49.26443        33.15770         2.07029
O         41.65162        27.31282        -2.85300
O         41.99180        42.21743         2.12629
O         39.09135        46.57405         0.18389
O         47.13607        44.32733         2.12819
O         38.16100        40.19663         1.97029
O         39.06657        37.82331         2.55278
H         38.54683        38.54894         2.97195
O         34.78670        31.38316        -0.80724
H         35.44025        31.74704        -1.44268
O         45.32416        41.61497         2.53583
H         45.39696        42.52923         2.88520
O         45.42946        44.59735        -1.06376
H         44.67343        45.07802        -1.46212
O         35.63277        40.98805        -2.14138
H         34.84836        40.48985        -2.45495
O         35.09247        45.38840        -0.50449
H         35.87605        45.97166        -0.41984
O         45.03898        46.10696         2.27384
H         45.84629        45.68816         2.66009
O         46.82351        30.17075        -2.65307
H         46.85675        29.36031        -3.20629
O         47.74472        40.30453        -1.31306
H         47.80220        39.38124        -1.63943
O         38.04495        26.22015        -1.49190
H         38.55865        25.69608        -2.14194
