         404
 CSIRO Nanostructure Databank - Neutral Graphene Oxide Data Set
C          1.18765         1.97348        -0.13745
C          1.15983         3.37741        -0.08362
C          2.39072         1.29129        -0.16705
C          2.34583         4.12753        -0.06310
C          1.15489         6.33074         0.02539
C          1.14511         7.73246         0.11445
C          2.34455         5.58148         0.03384
C          2.31511         8.46479         0.30981
C          1.11788        10.63291         0.68644
C          1.06895        11.98296         0.76176
C          2.34347         9.90453         0.40228
C          2.25947        12.80071         0.47559
C          1.13985        15.10075         1.24683
C          1.30425        16.40981         1.58811
C          2.26249        14.30232         0.70073
C          2.54504        17.14388         1.42226
C          2.65500        18.43848         2.00187
C          3.62116         2.00595        -0.15678
C          3.59903         3.44048        -0.10746
C          4.85567         1.32423        -0.18667
C          4.82665         4.16404        -0.12621
C          3.59194         6.27137         0.13616
C          3.57727         7.71519         0.42718
C          4.81935         5.59962        -0.01515
C          4.89107         8.48241         0.33512
C          3.53999        10.61608         0.22726
C          3.55059        12.06224         0.30356
C          4.82414         9.94064         0.07689
C          4.73413        12.74395         0.14249
C          3.60705        14.93231         0.91242
C          3.67004        16.42047         0.90409
C          4.82916        14.14550         0.56373
C          4.85496        17.01149         0.49876
C          3.80127        19.21767         2.17566
C          5.02119        19.05183         1.45872
C          6.07508         2.02845        -0.21600
C          6.06029         3.46836        -0.21790
C          7.31804         1.34761        -0.22958
C          7.28893         4.18611        -0.32812
C          6.06196         6.32641        -0.14586
C          6.09557         7.74416        -0.08478
C          7.27838         5.62195        -0.37887
C          7.26882         8.45130        -0.41946
C          5.97276        10.61938        -0.22849
C          5.91876        12.09891        -0.54206
C          7.33013         9.94706        -0.17996
C          7.26243        12.77439        -0.29564
C          6.10116        14.85424         0.36459
C          6.09861        16.28600         0.38937
C          7.27387        14.14585         0.11918
C          7.30878        16.97569         0.32762
C          6.29473        19.47252         1.84285
C          7.48937        19.04023         1.17358
C          8.53220         2.04947        -0.28182
C          8.52008         3.48989        -0.38069
C          9.77568         1.36839        -0.24480
C          9.74773         4.20760        -0.50150
C          8.48027         6.33356        -0.65247
C          8.44007         7.75143        -0.76297
C          9.73889         5.62193        -0.70256
C          9.63469         8.46574        -1.26643
C          8.31882        10.69084        -1.10075
C          8.45003        12.12502        -0.59785
C          9.65034         9.97238        -1.29107
C          9.74028        12.79006        -0.46615
C          8.55850        14.79352         0.40442
C          8.57431        16.32906         0.62895
C          9.80207        14.14618        -0.01817
C          9.86325        17.05543         0.59990
C          8.78672        19.15299         1.61646
C          9.92561        18.41380         1.06986
C         10.99496         2.06161        -0.27844
C         10.99299         3.51435        -0.41189
C         12.21804         1.35862        -0.25357
C         12.20089         4.22452        -0.46654
C         10.96847         6.30951        -0.84816
C         10.96319         7.73078        -1.25242
C         12.20354         5.62909        -0.70002
C         12.23029         8.49866        -1.18195
C         10.96051        10.69759        -1.17071
C         10.96324        12.11544        -0.72234
C         12.22913         9.91937        -1.10662
C         12.19817        12.79073        -0.57495
C         11.01122        14.88094         0.02237
C         11.04120        16.30653         0.35114
C         12.23082        14.19106        -0.26246
C         12.30595        16.96993         0.40754
C         11.17875        19.02032         1.17999
C         12.36766        18.34772         0.80672
C         13.46990         2.01875        -0.31082
C         13.49140         3.52383        -0.12172
C         14.64768         1.29694        -0.32900
C         14.69931         4.22096        -0.68691
C         13.45088         6.34834        -0.87087
C         13.43944         7.74430        -1.13111
C         14.68450         5.58710        -0.87376
C         14.69253         8.46613        -1.42373
C         13.42733        10.66327        -0.99982
C         13.43801        12.07071        -0.76205
C         14.70008         9.98039        -1.29006
C         14.67835        12.76906        -0.69254
C         13.47965        14.88558        -0.23072
C         13.51646        16.28125         0.09764
C         14.69931        14.18444        -0.47048
C         14.75728        16.97965         0.12938
C         13.60730        19.01417         0.88199
C         14.80866        18.35918         0.54089
C         15.94904         1.93180        -0.58810
C         15.95431         3.45939        -0.86320
C         17.19409         1.33082        -0.16126
C         17.23463         4.16311        -0.68211
C         15.98142         6.26384        -1.14028
C         16.00393         7.74606        -1.33229
C         17.23538         5.57669        -0.72635
C         17.21453         8.50684        -0.98046
C         15.97043        10.65934        -0.98866
C         15.92737        12.04845        -0.75202
C         17.19727         9.90472        -0.89699
C         17.14837        12.76682        -0.56958
C         15.93884        14.89829        -0.48872
C         15.96924        16.31816        -0.23286
C         17.15636        14.16838        -0.58256
C         17.18654        17.04504        -0.21654
C         16.05042        19.03105         0.63512
C         17.25380        18.39211         0.26853
C         18.42039         2.01368        -0.24319
C         18.43437         3.44962        -0.48183
C         19.64340         1.34747         0.01288
C         19.66306         4.16605        -0.41724
C         18.42386         6.29520        -0.58025
C         18.38767         7.78409        -0.36216
C         19.66008         5.60237        -0.46911
C         19.70093         8.48472        -0.58889
C         18.43601        10.59033        -0.59792
C         18.39122        12.02061        -0.35758
C         19.68170         9.90561        -0.57401
C         19.74990        12.80706        -0.40722
C         18.41740        14.87982        -0.84148
C         18.41515        16.44268        -0.71615
C         19.70676        14.22548        -0.74298
C         19.70840        17.08410        -0.50053
C         18.50886        19.06029         0.33939
C         19.72832        18.42788        -0.00437
C         20.88053         2.03222        -0.00155
C         20.88430         3.45343        -0.22127
C         22.11674         1.36096         0.18639
C         22.11838         4.15241        -0.20865
C         20.88673         6.33116        -0.52091
C         20.91037         7.75777        -0.58876
C         22.13246         5.57988        -0.57945
C         22.16967         8.47988        -0.56710
C         20.94073        10.62483        -0.62469
C         20.96512        12.05604        -0.69334
C         22.14564         9.89749        -0.63908
C         22.13923        12.79032        -0.95595
C         20.90362        14.93859        -0.95429
C         20.90653        16.39535        -0.80634
C         22.12851        14.20256        -1.01694
C         22.13609        17.09958        -0.70859
C         20.98009        19.09202         0.11449
C         22.17636        18.45314        -0.24369
C         23.33301         2.06467         0.25776
C         23.31005         3.49077         0.09734
C         24.59640         1.38846         0.36083
C         24.51108         4.27250         0.43854
C         23.47358         6.37082        -0.46092
C         23.41291         7.82559        -0.38357
C         24.62468         5.69405         0.12502
C         24.62247         8.53714        -0.07101
C         23.43828        10.58666        -0.80903
C         23.42858        12.07529        -1.06425
C         24.65362         9.95448        -0.27166
C         24.66716        12.82608        -0.77764
C         23.39875        14.90685        -1.25628
C         23.38443        16.45383        -1.08985
C         24.66575        14.22148        -0.97074
C         24.66747        17.12300        -0.82124
C         23.44142        19.14208        -0.16157
C         24.65436        18.53006        -0.44943
C         25.80964         2.06665         0.47901
C         25.79830         3.51937         0.75378
C         27.06718         1.43930         0.28887
C         27.04447         4.30308         0.72640
C         25.78615         6.41830         0.45423
C         25.79886         7.84186         0.31821
C         27.01231         5.67477         0.74408
C         26.93712         8.66888         0.89827
C         25.82957        10.72450        -0.08364
C         25.81954        12.12865        -0.35333
C         27.05267        10.06950         0.32546
C         27.00384        12.93177        -0.03391
C         25.88721        14.97620        -0.86943
C         25.85150        16.42846        -0.92526
C         27.05838        14.32204        -0.48305
C         27.11474        17.20799        -1.18091
C         25.91191        19.21360        -0.29339
C         27.12229        18.59624        -0.56457
C         28.28445         2.12897         0.40030
C         28.32239         3.53614         0.96423
C         29.49926         1.49304         0.12103
C         29.55556         4.31544         0.56507
C         28.28771         6.42257         0.93618
C         28.27731         7.92533         0.96654
C         29.55873         5.71559         0.64543
C         29.54649         8.63795         0.67749
C         28.26649        10.74268         0.38140
C         28.29510        12.21819         0.34387
C         29.53229        10.04534         0.52157
C         29.58054        12.94129         0.18027
C         28.27833        15.11059        -0.08218
C         28.38460        16.40693        -0.87068
C         29.57679        14.31383        -0.05908
C         29.64775        17.16554        -0.71174
C         28.37003        19.28117        -0.47103
C         29.60827        18.64419        -0.61533
C         30.74321         2.17531         0.18434
C         30.76255         3.61579         0.35793
C         31.95499         1.49159         0.03649
C         31.99271         4.32491         0.34263
C         30.77363         6.45026         0.57420
C         30.76658         7.89172         0.62913
C         32.01475         5.74474         0.47481
C         32.01044         8.57358         0.63413
C         30.75394        10.78922         0.53144
C         30.80375        12.20084         0.35339
C         31.98974        10.03613         0.79564
C         32.05884        12.92142         0.29352
C         30.82221        15.03422        -0.10058
C         30.85472        16.45124        -0.26300
C         32.04089        14.32932         0.08175
C         32.07528        17.16448        -0.39753
C         30.84089        19.31907        -0.44139
C         32.06510        18.62911        -0.41102
C         33.19764         2.15875         0.15471
C         33.22564         3.60224         0.31060
C         34.39966         1.43535         0.10557
C         34.43999         4.28585         0.47248
C         33.26845         6.44057         0.49435
C         33.24440         7.86921         0.57102
C         34.51203         5.71245         0.49139
C         34.49144         8.56797         0.40501
C         33.33233        10.78566         0.62375
C         33.30483        12.21440         0.29076
C         34.51384         9.98321         0.28931
C         34.52082        12.83983        -0.08113
C         33.30114        15.09122         0.01371
C         33.28965        16.49204        -0.42196
C         34.59921        14.31160        -0.10838
C         34.50084        17.22464        -0.96103
C         33.29941        19.27352        -0.17310
C         34.55107        18.63067        -0.31678
C         35.63974         2.05494         0.37245
C         35.65085         3.49073         0.72251
C         36.83095         1.33433         0.37966
C         36.98320         4.20704         0.85785
C         35.78855         6.39476         0.41668
C         35.69553         7.81257         0.18429
C         37.05727         5.68479         0.61928
C         36.80902         8.56818        -0.26412
C         35.69094        10.68282        -0.08054
C         35.69211        12.09043        -0.29318
C         36.89542         9.94564        -0.25347
C         36.90344        12.70713        -0.88519
C         35.74131        14.98289        -0.74797
C         35.75630        16.35367        -0.97089
C         36.89789        14.18110        -1.15589
C         36.99317        16.95473        -1.34200
C         35.71981        19.32521         0.02822
C         37.00103        18.97113        -0.49009
C         38.09108         1.97399         0.55208
C         38.18116         3.36994         0.64574
C         39.26400         1.13892         0.73434
C         39.48126         4.01573         0.76142
C         38.34817         6.24537         0.80743
C         38.67439         7.58096         0.34787
C         39.49244         5.42194         1.21723
C         39.60699         8.53825         0.72029
C         38.20687        10.64678        -0.13336
C         38.24254        11.99217        -0.79900
C         39.48669         9.98433         0.30333
C         39.51193        12.76688        -0.78443
C         38.26236        14.90215        -1.28890
C         38.24463        16.36188        -1.14233
C         39.51362        14.16264        -1.03091
C         39.45261        17.10525        -0.89121
C         38.26733        19.18197         0.01265
C         39.45019        18.47488        -0.44174
C         40.46524         1.64719         1.10139
C         40.69967         3.09527         1.09074
C         41.73067         3.67879         1.94393
C         40.63578         5.87915         1.85170
C         40.73369         8.26969         1.57477
C         41.70403         5.00304         2.25874
C         41.83081         9.10527         1.59329
C         40.75037        10.76055         0.13569
C         40.72263        12.10775        -0.43392
C         41.86341        10.29155         0.80514
C         41.92379        12.84685        -0.55714
C         40.71194        14.92052        -0.97810
C         40.69476        16.38983        -0.94210
C         41.92117        14.20424        -0.82409
C         41.89599        17.10611        -0.80117
C         40.69137        19.11780        -0.23074
C         41.89182        18.46763        -0.48475
O         16.14912         6.82337        -2.49263
O          7.31595        18.31400        -0.04184
O          4.36220         8.07845         1.63568
O         10.29365        10.50710        -2.49029
O         29.27832        16.45713        -2.01329
O         24.91801         3.94939         1.83123
O         32.76222        10.50016         1.94526
O         22.98807         5.83423        -1.74229
O         23.57596        11.14592        -2.18523
O         40.77255         7.15689         2.40936
O         19.10316        12.44601         0.85907
O         15.97162         2.51119        -1.96281
O          8.54416        15.37974         1.75009
O          2.04586        13.76818        -0.64286
O          4.36610        14.31353         1.99945
O         38.60033        10.71715         1.28350
O         23.37203        15.79696        -2.40322
O         36.93711        18.29755        -1.73697
O         14.64617         9.31154        -2.61039
O         37.47068        14.49193        -2.45352
O         37.91799         7.90457        -0.78999
O         27.44710        12.81126         1.40217
O         34.20836        14.89406         1.18297
O         37.46572        11.96591        -2.02838
O          4.88841        18.38323         0.22008
O         36.22464         3.79250         2.05015
O         10.17921         7.90669        -2.49632
O         40.50663         3.70749        -0.22631
O         18.30008        15.76642        -1.99958
O         28.35994         7.14614         2.22657
O          5.62053        12.25941        -1.96584
H          6.29331        11.71984        -2.45725
O          7.85647        10.11366         1.17093
H          7.20443         9.73744         1.80013
O          7.72058        10.69042        -2.42466
H          8.45895        10.82583        -3.06486
O         34.22380        17.47049        -2.37508
H         34.99577        17.96765        -2.72815
O         18.14162         7.90239         1.10861
H         18.29579         8.84157         1.35283
O         26.51222         8.91518         2.27568
H         26.93051         8.20967         2.82567
O         28.42278         3.36302         2.41498
H         28.40503         4.25441         2.82484
O         28.04196        15.53365         1.29989
H         27.84983        14.70608         1.80711
O         27.07336        17.45560        -2.61596
H         27.98423        17.28213        -2.95957
O         13.63431         3.69288         1.34542
H         12.85323         3.26815         1.76111
H          0.23980         1.41742        -0.14890
H          0.18408         3.88018        -0.04846
H          2.40888         0.19271        -0.20356
H          0.19007         5.82019        -0.09391
H          0.18039         8.25003         0.02252
H          0.20523        10.05583         0.89085
H          0.12062        12.49071         0.98835
H          0.14984        14.63166         1.34445
H          0.44511        16.96225         1.99941
H          1.75638        18.78228         2.54084
H          4.86572         0.22432        -0.19888
H          3.75910        20.01601         2.93269
H          7.32934         0.24837        -0.18936
H          6.40825        20.01208         2.79397
H          9.78301         0.27066        -0.17359
H          9.00265        19.83654         2.45159
H         12.19793         0.25824        -0.26066
H         11.24986        20.04897         1.56252
H         14.60951         0.19780        -0.26665
H         13.63564        20.06399         1.20867
H         17.16758         0.32360         0.28119
H         16.07266        20.07237         0.98823
H         19.63169         0.26324         0.19851
H         18.53200        20.10077         0.69515
H         22.11836         0.26731         0.30444
H         21.00521        20.13088         0.47469
H         24.60735         0.29310         0.25621
H         23.43464        20.19215         0.16754
H         27.08698         0.37826        -0.00443
H         25.89949        20.25532         0.06387
H         29.49497         0.42904        -0.16105
H         28.35845        20.35865        -0.24180
H         31.94790         0.40094        -0.10619
H         30.83633        20.41145        -0.30810
H         34.37250         0.35326        -0.09011
H         33.29207        20.35139         0.05253
H         36.80490         0.24618         0.22199
H         35.63369        20.19394         0.70010
H         39.11352         0.04935         0.71530
H         38.39817        19.88482         0.84952
H         41.28388         0.98414         1.41819
H         42.48003         3.01351         2.39768
H         42.48207         5.43248         2.90469
H         42.70223         8.83990         2.20449
H         42.80017        10.86420         0.80210
H         42.89100        12.35058        -0.40357
H         42.88674        14.72442        -0.86301
H         42.86396        16.59980        -0.90611
H         40.69634        20.16177         0.11344
H         42.84429        19.00330        -0.37105
