         344
 CSIRO Nanostructure Databank - Neutral Graphene Oxide Data Set
C          1.31064         3.80535         1.63602
C          0.21583         4.57694         1.83215
C          1.17626         6.45748         0.58125
C          0.10088         5.87471         1.21342
C          1.10873         7.79331        -0.12858
C         -0.08901         8.63696         0.20267
C          1.15573        10.72970        -0.14934
C         -0.06089         9.98361         0.11389
C          1.14932        12.12128        -0.24832
C         -0.04287        12.89978        -0.18763
C          1.15467        14.94631        -0.84340
C         -0.02867        14.25374        -0.43498
C          1.06201        16.34397        -1.31079
C         -0.10819        17.15316        -0.92615
C          1.15051        19.26032        -1.08319
C         -0.06987        18.50180        -0.87178
C          1.15755        20.68363        -0.90503
C         -0.02192        21.39579        -0.47610
C          1.12221        23.60252        -0.69528
C         -0.04674        22.74086        -0.29790
C          1.15730        24.93075         0.02852
C          0.00858        25.72718         0.05629
C          1.22127        27.49431         1.21627
C          0.03263        26.98924         0.64883
C          1.26760        28.86562         1.69691
C          3.71932         3.64107         0.95447
C          2.38566         4.25060         0.67364
C          3.62668         6.42679         0.27382
C          2.42902         5.75003         0.52160
C          3.62319         7.86339         0.02827
C          2.40835         8.56784        -0.03961
C          3.62313        10.65302        -0.44497
C          2.40614         9.97801        -0.21986
C          3.56963        12.08133        -0.93336
C          2.46168        12.88008        -0.26325
C          3.61746        14.95337        -1.14696
C          2.38923        14.28929        -0.84100
C          3.66102        16.36573        -1.42652
C          2.37384        17.10266        -1.59814
C          3.56073        19.32208        -1.60070
C          2.32934        18.56770        -1.41161
C          3.59852        20.73088        -1.23657
C          2.39829        21.41903        -0.96883
C          3.60019        23.43808        -0.20152
C          2.41029        22.82045        -0.63540
C          3.55644        24.63257         0.54788
C          2.35367        25.41084         0.63133
C          3.63182        27.24412         1.92205
C          2.38909        26.70271         1.21983
C          3.70005        28.74896         1.82333
C          2.45733        29.47776         1.93603
C          6.15255         3.67177         0.91869
C          4.90342         4.32893         0.74759
C          6.09378         6.43653         0.21258
C          4.88561         5.74374         0.38526
C          6.10169         7.84710        -0.07978
C          4.86172         8.55598        -0.13566
C          6.09649        10.66132        -0.58232
C          4.85175         9.95733        -0.41494
C          6.11461        12.08795        -0.72103
C          4.87355        12.83309        -0.83536
C          6.16723        14.88478        -1.32826
C          4.85135        14.20153        -1.03628
C          6.13653        16.39143        -1.20535
C          4.88508        17.07067        -1.44771
C          6.14853        19.27157        -1.34777
C          4.91714        18.52956        -1.68224
C          6.15786        20.63227        -1.08162
C          4.89487        21.41705        -1.15064
C          6.10814        23.23679         0.19133
C          4.89817        22.81100        -0.54906
C          5.91303        24.17120         1.16385
C          4.70236        25.00143         1.45213
C          6.12202        27.22565         1.43349
C          4.92621        26.52887         1.53313
C          6.13714        28.69912         1.51963
C          4.89761        29.39821         1.73331
C          8.59278         3.69369         0.95822
C          7.38360         4.34059         0.72461
C          8.53207         6.40711        -0.00866
C          7.35563         5.75085         0.31637
C          8.56872         7.80487        -0.34651
C          7.32456         8.53044        -0.29864
C          8.56871        10.63410        -0.62442
C          7.32217         9.94635        -0.51783
C          8.57877        12.06367        -0.66090
C          7.34247        12.76751        -0.68104
C          8.61867        14.95081        -0.78669
C          7.30281        14.26620        -0.51838
C          8.60507        16.34904        -0.96024
C          7.34819        17.05538        -1.14285
C          8.65940        19.22253        -1.16492
C          7.42290        18.49472        -1.58076
C          8.63588        20.70752        -1.34322
C          7.38035        21.34788        -0.79270
C          8.64143        23.32727        -0.00614
C          7.40565        22.61924        -0.16389
C          8.78374        24.62622         0.56158
C          7.72134        25.29975         1.29098
C          8.57374        27.46516         0.56196
C          7.42687        26.62792         1.13433
C          8.57371        28.89871         1.04255
C          7.29598        29.45044         1.38321
C         11.11621         3.63173         0.76058
C          9.87827         4.46634         0.93627
C         11.01633         6.22112        -0.60962
C          9.78185         5.61189        -0.05008
C         11.00791         7.67299        -1.13258
C          9.78193         8.46093        -0.64411
C         11.01610        10.62037        -0.71753
C          9.79549         9.89442        -0.68117
C         11.02713        12.02728        -0.72050
C          9.82477        12.77034        -0.70308
C         11.05286        14.94923        -0.73949
C          9.83788        14.22829        -0.74473
C         11.05452        16.36905        -0.74083
C          9.83238        17.07332        -0.92033
C         11.10008        19.20588        -0.82375
C          9.84912        18.51815        -0.98282
C         11.10638        20.65815        -0.83126
C          9.90522        21.36258        -0.91149
C         11.14939        23.45438        -0.37922
C          9.84758        22.85032        -0.81644
C         11.16679        24.80849        -0.00246
C          9.93941        25.40010         0.39849
C         11.11045        27.61286         0.59378
C          9.89776        26.79649         0.94465
C         11.04158        29.02357         0.72621
C          9.74497        29.62520         1.02214
C         13.54040         3.48030         0.44675
C         12.28590         4.16054         0.27340
C         13.61172         6.25663        -0.35173
C         12.31436         5.49868        -0.37811
C         13.58476         7.72800        -0.41322
C         12.35010         8.41908        -0.88614
C         13.46638        10.59887        -0.00089
C         12.32324         9.90926        -0.73654
C         13.55912        12.05042        -0.38598
C         12.34022        12.71369        -0.82223
C         13.56254        14.91230        -0.32500
C         12.35461        14.25836        -0.80183
C         13.48574        16.37515         0.04109
C         12.27601        17.08556        -0.51806
C         13.51127        19.24134        -0.08632
C         12.27942        18.48058        -0.53044
C         13.62105        20.56160        -0.89317
C         12.35752        21.35062        -0.74124
C         13.59086        23.48200        -0.43272
C         12.37069        22.75509        -0.51869
C         13.60068        24.85866        -0.15363
C         12.38507        25.52970         0.12568
C         13.54351        27.70366         0.39892
C         12.34774        26.95847         0.39176
C         13.49573        29.12577         0.46093
C         12.22955        29.76947         0.60424
C         15.99215         3.49935         0.77172
C         14.75739         4.16529         0.44723
C         15.97648         6.30775         0.36487
C         14.79909         5.58188         0.20013
C         15.99836         7.72916         0.11991
C         14.75230         8.43055        -0.17731
C         15.97248        10.58056        -0.19557
C         14.78455         9.88580        -0.17583
C         16.00910        12.03165        -0.17399
C         14.76130        12.75122        -0.30868
C         16.03045        14.87594        -0.03974
C         14.77204        14.20685        -0.25849
C         16.02656        16.35880         0.25583
C         14.82034        17.03688        -0.43813
C         16.03707        19.22128         0.25131
C         14.79672        18.50537        -0.19356
C         16.06392        20.66150        -0.24258
C         14.87914        21.31207        -0.55248
C         16.07573        23.44623        -0.17234
C         14.86629        22.79500        -0.84972
C         16.04881        24.95325        -0.20465
C         14.85611        25.59316        -0.06559
C         16.06605        27.77832         0.21302
C         14.84460        26.97169         0.56165
C         15.98223        29.21408         0.21695
C         14.71983        29.85276         0.37650
C         18.44283         3.52229         1.14394
C         17.17241         4.19730         0.90980
C         18.37955         6.35572         0.84789
C         17.19229         5.63587         0.73881
C         18.42079         7.74222         0.49030
C         17.20259         8.41867         0.14452
C         18.49286        10.58132         0.00982
C         17.26209         9.82262        -0.41379
C         18.48308        11.99457         0.00108
C         17.22789        12.72464        -0.11862
C         18.50472        14.88380        -0.00423
C         17.23651        14.17104        -0.05431
C         18.54441        16.31644        -0.03361
C         17.32510        17.07064        -0.02174
C         18.53700        19.20471        -0.03197
C         17.33011        18.47650        -0.01075
C         18.54936        20.63525        -0.14034
C         17.32521        21.32998        -0.29800
C         18.61570        23.48485        -0.19300
C         17.37275        22.78838        -0.66873
C         18.55637        24.96033        -0.24928
C         17.30796        25.62545         0.30723
C         18.50912        27.85995         0.01414
C         17.28546        27.12464         0.10471
C         18.44060        29.29318         0.06015
C         17.18743        29.94578         0.13041
C         19.58739         4.20699         1.33301
C         20.87051         6.34432         0.91697
C         19.60912         5.70813         1.43687
C         20.87720         7.64668         0.53755
C         19.66068         8.42163         0.42939
C         20.88247        10.59358         0.46725
C         19.68587         9.86300         0.26569
C         20.89218        11.97368         0.38459
C         19.70512        12.70473         0.15553
C         20.94237        14.86741         0.07235
C         19.72232        14.15947         0.07124
C         20.97287        16.25926         0.05835
C         19.78994        17.00130         0.01137
C         21.00242        19.21988        -0.38651
C         19.83838        18.49614         0.23736
C         20.98914        20.57975        -0.47767
C         19.79986        21.34699        -0.23614
C         21.04729        23.57332        -0.06071
C         19.81795        22.79649        -0.18175
C         21.06606        24.93018        -0.11823
C         19.83839        25.73098        -0.30782
C         20.93860        27.98272        -0.06097
C         19.78305        27.20867        -0.07097
C         20.87230        29.39311         0.01067
C         19.65573        30.04097         0.05008
O         17.26246        25.37143         1.72116
O         19.05972        25.42667        -1.55787
O          6.92962        24.45299         2.08806
O         12.51674        13.49319        -2.04442
O          1.52860        16.57757        -2.67570
O         12.68117         9.32417        -2.01385
O         13.13546         5.57158        -1.58817
O          5.05348        22.62112        -1.99048
O          4.24127        18.99735        -2.87695
O         10.16985         5.32418        -1.42545
O          2.84547        13.03368         1.13631
H          2.11831        13.50261         1.59628
O          8.49153        27.48642        -0.88194
H          7.68483        27.98071        -1.13537
O          0.96450         7.44054        -1.55487
H          0.98128         8.27856        -2.06480
O         15.97979        23.11884         1.23704
H         16.47597        23.85478         1.71924
O          1.96586         3.72367        -0.65069
H          1.20231         4.26871        -0.94086
O          0.91554        23.93773        -2.11987
H          0.98421        23.10179        -2.62885
O         10.01120         5.12033         2.25690
H          9.95293         4.42087         2.94167
O          8.52448        20.95823        -2.85517
H          7.61652        21.30165        -3.02123
O          3.23388        12.00512        -2.35137
H          3.99719        11.61053        -2.82296
O          9.62411        23.37854        -2.18232
H          9.29808        22.62413        -2.73461
O         17.49210        22.89595        -2.13759
H         18.00180        23.71674        -2.33495
O         14.94770        26.71179         2.00505
H         15.82143        26.21149         2.12151
O         14.88165        22.91579        -2.30125
H         15.82899        22.84518        -2.59416
O         13.74188        20.14763        -2.28650
H         13.91882        20.96801        -2.80344
O         19.58064         6.00768         2.88446
H         19.61040         6.98401         2.97496
O         10.82416         7.59938        -2.55995
H         11.46022         6.93876        -2.90834
O          7.52384        18.39391        -3.05465
H          7.97216        19.21992        -3.36493
O         20.03635        18.62848         1.70366
H         19.94593        19.58135         1.92188
O         13.10460        10.52341         1.41988
H         13.82524        10.94448         1.93455
O         13.33368        16.53509         1.48001
H         14.19503        16.26795         1.89950
O         17.40065         9.66413        -1.87108
H         16.57783         9.24256        -2.20053
O         15.89624        16.48798         1.71604
H         16.02952        17.45060         1.93777
O         13.29554        19.62887         1.31361
H         13.07506        18.79378         1.78946
O          4.29813        24.56224         2.80967
H          5.12696        24.54626         3.34031
O          9.89676        26.70106         2.40519
H         10.78386        26.39392         2.68911
O         15.97281        19.29827         1.73535
H         15.11360        19.74816         1.94116
O          6.46012        14.61487        -2.72874
H          5.85895        15.15957        -3.27930
O          3.40986        26.99487         3.35019
H          3.44881        26.01225         3.46551
O         14.96285        16.76385        -1.85741
H         14.36598        17.36869        -2.34776
O          6.99210        14.52479         0.88693
H          7.67267        14.08039         1.43437
H          1.37882         2.79884         2.07447
H         -0.61194         4.22455         2.46495
H         -0.85475         6.40702         1.31116
H         -1.05093         8.13732         0.38684
H         -0.99402        10.53885         0.28433
H         -1.01275        12.41652        -0.00730
H         -0.98693        14.78840        -0.41688
H         -1.04659        16.64556        -0.66421
H         -0.99023        19.03318        -0.59914
H         -0.93395        20.82972        -0.24360
H         -0.96914        23.22565         0.05385
H         -0.91558        25.36854        -0.41791
H         -0.87105        27.61558         0.64565
H          0.32550        29.43040         1.75264
H          3.75397         2.57733         1.23598
H          2.49763        30.55322         2.16599
H          6.15917         2.61313         1.21878
H          4.92288        30.49933         1.75025
H          8.59607         2.64287         1.28704
H          7.22741        30.53887         1.54252
H         11.14058         2.64453         1.24981
H          9.72120        30.69488         1.28423
H         13.52248         2.42230         0.74919
H         12.19381        30.86736         0.67142
H         15.98321         2.40645         0.89967
H         14.68901        30.95214         0.43621
H         18.44844         2.42155         1.13043
H         17.15685        31.04585         0.15349
H         20.53383         3.67096         1.50134
H         21.81137         5.77669         0.97176
H         21.82948         8.11741         0.25275
H         21.81981        10.06700         0.69078
H         21.84568        12.49661         0.53308
H         21.89747        14.32809         0.10719
H         21.94354        16.76999         0.11802
H         21.92352        18.66854        -0.62268
H         21.89729        21.10752        -0.80491
H         21.99324        23.03486         0.09807
H         22.01963        25.45595         0.04052
H         21.92567        27.50373        -0.12750
H         21.80588        29.97283         0.01387
H         19.60977        31.13893         0.08888
