         232
 CSIRO Nanostructure Databank - Neutral Graphene Oxide Data Set
C        -11.21314         0.77069         0.44503
C        -10.19183         1.79069         0.57065
C         -8.24502         0.78941         0.85894
C         -7.21989         1.52097         0.28380
C         -5.86402         0.81244         0.26216
C         -4.90662         1.43388        -0.72096
C         -3.61265         0.77214        -1.09157
C         -2.28602         1.49372        -1.16649
C         -1.11815         0.64499        -1.05884
C          0.19210         1.10309        -1.40073
C          1.38939         0.44260        -1.06537
C          2.70380         1.05073        -1.07119
C          3.76247         0.57099        -0.31982
C          4.84277         1.36519         0.33913
C          6.15827         0.65320         0.58027
C          7.40319         1.44734         0.83705
C          8.80602         0.80358         0.67320
C          9.76113         1.58094        -0.24562
C         10.76812         0.79200        -0.92964
C         -9.95182         2.93925        -0.12596
C         -8.65547         3.62760        -0.10715
C         -7.38045         2.91555        -0.04509
C         -6.25707         3.55911        -0.61556
C         -5.21216         2.70009        -1.11547
C         -3.39997         3.75842        -1.34432
C         -2.23195         2.94846        -1.19893
C         -1.05893         3.79125        -1.01556
C          0.21852         3.35101        -1.38403
C          1.39042         3.98595        -0.86883
C          2.59729         3.29786        -0.77926
C          3.59317         3.68010         0.19425
C          4.79588         2.85087         0.55807
C          6.05074         3.59300         0.87900
C          7.23870         2.91409         0.99257
C          9.07408         4.00495         0.19791
C          9.83685         2.95147        -0.43696
C         -8.62370         4.97768        -0.41897
C         -7.40691         5.72775        -0.58887
C         -6.15433         4.99179        -0.75514
C         -4.91668         5.67982        -0.77805
C         -3.60223         5.05041        -0.80188
C         -2.41338         5.77039        -0.43447
C         -1.17410         5.17539        -0.62763
C          0.04876         6.07796        -0.72908
C          1.31955         5.34438        -0.40871
C          2.46368         5.98651        -0.01178
C          3.59198         5.20322         0.49175
C          4.91102         5.82866         0.71008
C          6.00122         5.05249         0.99626
C          7.91084         6.20333         0.30530
C          8.94256         5.31485        -0.22138
C         -7.45553         7.11345        -0.56964
C         -6.25544         7.92598        -0.70414
C         -4.93034         7.16626        -0.73143
C         -3.79651         7.87926        -0.06338
C         -2.49698         7.15690         0.08376
C         -1.26597         7.95733         0.28042
C         -0.05441         7.35457         0.06662
C          1.16473         8.00827         0.52854
C          2.50067         7.48667         0.04506
C          3.68227         8.00879         0.90730
C          4.95695         7.30138         0.42860
C          6.20257         8.07042         0.10495
C          7.53356         7.42864        -0.16707
C         -6.23931         9.33484        -0.24217
C         -5.09153        10.01066         0.01397
C         -3.79226         9.36079         0.06059
C         -2.63887        10.03049         0.38923
C         -1.33739         9.38982         0.53372
C         -0.17600        10.14051         0.68642
C          1.13252         9.50331         0.87174
C          2.45820        10.19132         0.77310
C          3.65641         9.52529         0.76726
C          4.94699        10.18793         0.61005
C          6.10730         9.53759         0.33298
C        -10.96495        -0.55509         0.67951
C         -9.69901        -1.27682         0.79547
C         -8.37730        -0.63985         0.73659
C         -7.24879        -1.36069         0.36469
C         -5.99751        -0.69064         0.07364
C         -4.90168        -1.38984        -0.34766
C         -3.62324        -0.72234        -0.74667
C         -2.38630        -1.39500        -0.34163
C         -1.16925        -0.72828        -0.52363
C          0.07228        -1.41870        -0.20785
C          1.30344        -0.86228        -0.49267
C          2.59762        -1.63662        -0.55361
C          3.78637        -0.83935        -0.04744
C          4.96138        -1.48753         0.21843
C          6.27359        -0.76495         0.06151
C          7.48464        -1.49462         0.71508
C          8.70577        -0.69504         0.30843
C          9.74193        -1.35705        -0.32419
C         10.81583        -0.56751        -0.90555
C         -9.76629        -2.65815         0.66455
C         -8.61911        -3.48672         0.41698
C         -7.24329        -2.86335         0.50799
C         -6.25175        -3.53241        -0.40134
C         -4.88901        -2.88822        -0.57258
C         -3.80626        -3.48579         0.37606
C         -2.50486        -2.72206         0.34346
C         -1.23692        -3.50048         0.58844
C          0.06767        -2.79343         0.35643
C          1.28014        -3.62527         0.24948
C          2.55627        -2.98932         0.08380
C          3.72191        -3.64426         0.33881
C          5.01056        -2.96482        -0.03059
C          6.25093        -3.63639         0.49910
C          7.49030        -2.98222         0.38108
C          8.69541        -3.63176        -0.08643
C          9.74141        -2.78742        -0.49602
C         -8.73877        -4.82913         0.13992
C         -7.58495        -5.62236        -0.27154
C         -6.47974        -4.81182        -0.85594
C         -4.87283        -5.78780         0.87390
C         -3.76966        -4.97224         0.59227
C         -2.49724        -5.69309         0.47936
C         -1.22523        -4.96379         0.34479
C         -0.05498        -5.66990         0.16901
C          1.22798        -5.01508         0.29520
C          2.44983        -5.77700         0.41738
C          3.68374        -5.04880         0.86599
C          4.97541        -5.79037         0.59753
C          6.13258        -5.01653         0.77337
C          7.88971        -5.99730         0.07527
C          8.72364        -5.03861        -0.47780
C         -7.47115        -6.94600         0.07317
C         -6.23432        -7.78629        -0.17769
C         -4.93297        -7.14436         0.33188
C         -3.78681        -7.83490         0.06686
C         -2.49118        -7.18912         0.29910
C         -1.33618        -7.85570        -0.41636
C         -0.02650        -7.09999        -0.24042
C          1.25793        -7.86285        -0.12203
C          2.49752        -7.15402         0.29526
C          3.74623        -7.87998         0.28057
C          5.00293        -7.19424         0.36563
C          6.22702        -7.88794        -0.05382
C          7.46707        -7.30080        -0.36149
C         -6.20927        -9.22237         0.32163
C         -5.06932        -9.92530         0.20301
C         -3.80731        -9.28890        -0.36499
C         -2.50300        -9.98410         0.00165
C         -1.29544        -9.33628        -0.06608
C         -0.01928        -9.99897         0.07846
C          1.20452        -9.34048         0.01738
C          2.46781       -10.00055         0.04630
C          3.68558        -9.30039         0.05476
C          4.92740        -9.98938        -0.18753
C          6.10129        -9.30596        -0.31860
O          0.80563        -7.34006        -1.43932
O         -9.24058         1.46314         1.56145
O         -3.90407        -9.36041        -1.82866
H         -3.11469        -8.85701        -2.16575
O         -3.44474        -2.64452         1.50192
O          9.39898         0.82611         1.99561
H          8.71471         0.46563         2.60567
O          7.17706         5.69150         1.39434
O         -2.27954        -6.68908         1.64031
O          2.85205         2.30525        -1.70303
O          5.24528         7.61565        -0.98247
O         -4.42660         3.24971        -2.13917
O         -6.80948        -3.00943         1.92688
H         -7.56610        -2.74974         2.49465
O          2.63353         8.00731        -1.29687
H          3.58211         7.92541        -1.56477
O          8.38705         3.61096         1.35955
O          3.08363         4.23303         1.44902
O          0.10361         6.49268        -2.13211
H          0.41430         5.73066        -2.66490
O          1.10172         8.44951         1.91262
O          0.33316         2.25078        -2.21865
O          6.54192        -0.69429        -1.35990
H          6.18790        -1.53668        -1.75446
O         -3.44512         7.24305         1.21476
O          5.14315        -3.06862        -1.50081
H          4.27996        -2.67245        -1.87639
O         -3.70137        -0.25828        -2.14421
O         -5.69082        -5.32408        -1.81617
H         -5.91777        -6.27755        -1.99571
O          7.27731        -5.63370         1.29696
O         -5.29838         1.02650         1.59575
H         -5.85718         0.55267         2.24735
O          6.64365         0.81515         1.93230
O         -5.89695        -5.43306         1.66887
H         -5.85622        -4.47956         1.93573
O          4.37189         1.91680         1.61668
O          3.54816         7.62412         2.28038
H          2.66796         7.94051         2.60241
O         -6.15421        -7.89016        -1.63987
H         -5.38736        -8.48836        -1.87221
O          2.86192        -1.81142        -1.94955
O         -5.45611         7.76375        -1.94556
O         -0.49365        -2.96426         1.72395
O          3.60191        -4.95432         2.33759
H          3.47910        -5.86215         2.68728
O          7.34440        -1.48476         2.16266
H          7.86112        -2.23586         2.52243
O         -1.68041        -7.76762        -1.83603
H         -0.81772        -7.78704        -2.31956
O         -4.35250        -3.11711        -1.88943
H         -4.93691        -2.68764        -2.54732
H         11.63609        -1.09510        -1.41422
H         11.55236         1.34431        -1.47020
H         10.59049         3.29348        -1.16720
H          9.50870         5.65021        -1.10233
H          8.11913         7.89094        -0.97714
H          7.03630        10.12197         0.24855
H          4.96842        11.28421         0.71857
H          2.45067        11.28600         0.64423
H         -0.23310        11.23897         0.64222
H         -2.68455        11.12144         0.53370
H         -5.13740        11.07741         0.28134
H         -7.20690         9.85439        -0.16904
H         -8.39741         7.61300        -0.29530
H         -9.57434         5.52582        -0.50110
H        -10.71734         3.33636        -0.80931
H        -12.23142         1.06700         0.14903
H        -11.83663        -1.22596         0.59477
H        -10.75695        -3.13773         0.61523
H         -9.71992        -5.32228         0.22933
H         -8.31220        -7.41355         0.61131
H         -7.12548        -9.68830         0.71650
H         -5.02950       -10.98219         0.50927
H         -2.53041       -11.06965         0.18904
H         -0.02520       -11.09090         0.22381
H          2.49088       -11.10014        -0.00706
H          4.90177       -11.07649        -0.35364
H          7.01576        -9.85502        -0.59016
H          8.17098        -7.90537        -0.95704
H          9.37044        -5.30879        -1.32664
H         10.60875        -3.23364        -1.00633
