         651
 CSIRO Nanostructure Databank - Neutral Graphene Oxide Data Set
C          5.82335        31.60779         0.85495
C          5.79399        32.96967         0.85978
C          8.34680        27.38875         0.60600
C          8.25192        28.63671         1.44336
C          7.06967        29.48804         1.04603
C          8.27243        31.63728         1.17491
C          7.06308        30.87287         1.03636
C          8.26789        33.04402         1.06215
C          6.99982        33.75517         0.96258
C          8.13935        35.94539         1.00848
C          6.95710        35.14407         0.99196
C          8.10584        37.33085         0.97078
C         10.79699        23.21472        -0.56159
C         10.77037        24.61460        -0.26028
C          9.56084        25.33988        -0.06152
C         10.80114        27.35787         0.63675
C          9.56026        26.70998         0.37006
C         10.84397        28.71349         1.18562
C          9.56187        29.43048         1.51052
C         10.79337        31.67361         1.09217
C          9.54896        30.93279         1.39598
C         10.74113        33.09756         1.04885
C          9.48291        33.77367         1.06427
C         10.63123        35.97542         1.43684
C          9.46575        35.25450         0.77933
C         10.57702        37.52068         1.48004
C          9.30789        38.11661         0.87488
C         10.55953        40.05510         0.01097
C          9.31055        39.40680         0.36669
C         10.76153        41.41718        -0.22733
C         13.29830        18.93193        -0.86555
C         13.25872        20.35115        -0.62455
C         12.04336        21.05734        -0.68809
C         13.26196        23.16349        -0.49620
C         12.01291        22.47254        -0.57241
C         13.23675        24.62674        -0.50833
C         11.99687        25.30511        -0.14440
C         13.29514        27.44598         0.14963
C         12.09887        26.60951         0.58154
C         13.15081        28.94083         0.00351
C         12.08803        29.53614         0.90365
C         13.20928        31.74905         0.65760
C         12.01172        31.01803         0.88474
C         13.20296        33.16186         0.84138
C         11.97173        33.81938         1.01471
C         13.22482        35.98793         1.29438
C         11.94926        35.25412         1.35531
C         13.13999        37.45694         1.17354
C         11.81148        38.03260         0.77567
C         13.52067        40.17173        -0.24561
C         11.65989        39.10134        -0.04620
C         13.30932        41.50934        -0.12629
C         12.02017        42.15501        -0.33364
C         13.24627        44.33710        -0.48508
C         12.03212        43.55173        -0.43718
C         13.23228        45.72361        -0.69317
C         15.79161        14.73872        -1.35280
C         15.75044        16.14203        -1.35367
C         14.53148        16.82471        -1.24515
C         15.75102        18.83901        -0.49194
C         14.48263        18.20953        -0.92807
C         15.72679        20.34801        -0.17536
C         14.47790        21.06996        -0.40930
C         15.76366        23.19563        -0.23592
C         14.49790        22.48398        -0.42247
C         15.79074        24.63742        -0.23381
C         14.52886        25.37279        -0.42641
C         15.73699        27.52462        -0.23751
C         14.48589        26.82160        -0.11408
C         15.70951        28.99279        -0.24596
C         14.45616        29.70748         0.10336
C         15.72348        31.87662         0.16422
C         14.44735        31.05866         0.34317
C         15.68288        33.24523         0.80622
C         14.46501        33.89127         0.95835
C         15.71359        36.03985         1.27089
C         14.43661        35.32064         1.19935
C         15.71439        37.41747         1.25904
C         14.46129        38.17703         1.05528
C         15.84322        40.10662         0.28480
C         14.64772        39.48050         0.36202
C         15.80154        41.51107        -0.27361
C         14.55880        42.27171         0.26901
C         15.72518        44.32628        -0.48444
C         14.52838        43.67886        -0.28198
C         15.70116        45.72424        -0.96066
C         14.43582        46.48872        -0.85049
C         15.70345        48.64263        -0.99000
C         14.47460        47.87740        -0.93784
C         15.70881        50.05415        -0.97012
C         18.00611        10.44818        -0.77898
C         18.22247        11.84593        -0.97246
C         17.03810        12.63299        -1.11348
C         18.25074        14.78371        -1.20486
C         17.01439        14.02778        -1.25571
C         18.27801        16.14939        -1.28617
C         17.02638        16.93712        -1.57765
C         18.22774        18.95003        -0.62341
C         17.03605        18.26190        -0.85197
C         18.21826        20.35521        -0.26476
C         17.00391        21.06877        -0.17958
C         18.20238        23.20877         0.40626
C         16.96423        22.48939        -0.07828
C         18.23607        24.67176         0.03402
C         16.97614        25.36895        -0.16650
C         18.19792        27.55239        -0.14362
C         16.94953        26.82730        -0.22916
C         18.25079        28.92598         0.05589
C         17.01395        29.71809        -0.05358
C         18.22684        31.80496         0.72886
C         16.92266        31.04458         0.67055
C         18.18521        33.15333         1.02257
C         16.94084        33.91538         1.04562
C         18.22298        36.02826         1.46407
C         16.96531        35.29833         1.29847
C         18.15075        37.45496         2.02190
C         16.90117        38.29307         1.63203
C         18.27762        40.28143         0.77891
C         17.12279        39.35397         0.53329
C         18.27367        41.60102         0.34300
C         17.05928        42.29577        -0.02412
C         18.22986        44.44433        -0.22129
C         17.01071        43.66730        -0.24001
C         18.23760        45.79799        -0.56270
C         17.00480        46.48456        -1.00736
C         18.17328        48.66234        -0.92025
C         16.96094        47.95698        -0.96660
C         18.16531        50.09488        -0.95482
C         16.92041        50.80695        -0.95360
C         18.16985        52.95873        -0.92254
C         16.95697        52.23251        -0.95029
C         18.21479        54.39566        -0.97373
C         20.55983         6.16712         0.10191
C         20.36424         7.55985         0.04938
C         19.07350         8.14518        -0.28585
C         20.80680        10.54069        -0.45863
C         18.99578         9.43076        -0.82455
C         20.70715        11.98090        -0.54226
C         19.49428        12.56190        -0.90288
C         20.70542        14.68110        -1.67119
C         19.53487        14.08416        -0.85674
C         20.75659        16.21461        -1.40844
C         19.54096        16.87923        -1.17191
C         20.70661        18.97950        -0.62236
C         19.50616        18.28107        -0.84896
C         20.69935        20.38615        -0.28081
C         19.46845        21.08244        -0.16801
C         20.71044        23.16552         0.20809
C         19.49347        22.48091         0.08508
C         20.67612        24.63954         0.56371
C         19.43309        25.32759         0.01916
C         20.74895        27.51931        -0.19921
C         19.45034        26.77887        -0.27297
C         20.72239        28.96405         0.15529
C         19.48680        29.64827         0.29602
C         20.69523        31.69954         0.90332
C         19.46877        31.03840         0.65938
C         20.69578        33.08366         1.47397
C         19.36874        33.82385         1.68655
C         20.70016        36.04703         1.81173
C         19.41892        35.34566         1.49318
C         20.73770        37.53087         2.04188
C         19.44448        38.29115         1.91423
C         20.78958        40.34718         1.04631
C         19.49573        39.69192         1.36046
C         20.73705        41.67770         0.55955
C         19.52038        42.32713         0.28385
C         20.67993        44.41009        -0.23346
C         19.49137        43.73948        -0.03805
C         20.72472        45.89054        -0.08063
C         19.44756        46.56429        -0.54968
C         20.68600        48.69184        -0.76081
C         19.41870        47.92875        -0.78035
C         20.64365        50.09853        -1.25314
C         19.38211        50.83166        -0.99583
C         20.69896        52.91904        -0.79795
C         19.40203        52.21933        -0.94792
C         20.69794        54.43883        -0.75906
C         19.40867        55.13976        -0.98268
C         20.66166        57.28261        -1.17401
C         19.44483        56.54407        -1.13759
C         20.70449        58.67766        -1.14273
C         23.26389         3.65375         0.73958
C         22.03050         4.18673         0.38585
C         22.85623         6.41466         0.99705
C         21.80187         5.58679         0.47547
C         22.53300         7.76585         1.19876
C         21.42669         8.38565         0.58871
C         23.31360        11.02539         0.73180
C         21.40739         9.82687         0.53944
C         23.21836        12.13256        -0.15076
C         21.95569        12.73230        -0.53582
C         23.20121        14.33425        -1.80397
C         21.96979        13.92140        -1.28472
C         23.23892        16.49307        -1.73931
C         21.95970        16.99540        -1.36081
C         23.20359        18.91856        -0.49576
C         21.95716        18.31018        -0.82138
C         23.14883        20.25735         0.11052
C         21.91896        21.06351        -0.03805
C         23.22305        23.15331         0.37344
C         21.94547        22.45774         0.18736
C         23.22242        24.61699         0.33638
C         21.97456        25.36070         0.25937
C         23.24164        27.45066        -0.13235
C         21.98312        26.71995         0.04059
C         23.22899        28.99466         0.01959
C         21.93486        29.66306         0.31797
C         23.20438        31.75967         0.67395
C         21.91807        31.02125         0.69489
C         23.22681        33.22297         0.99030
C         21.98058        33.85199         1.53054
C         23.17353        36.01119         1.49544
C         21.98786        35.33379         1.58725
C         23.16628        37.47120         1.39159
C         22.07010        38.33179         1.99988
C         23.22329        40.26063         0.79893
C         22.01898        39.67245         1.25927
C         23.19384        41.55549         0.11331
C         22.02724        42.46316         0.43859
C         23.18187        44.34607        -0.80586
C         21.87333        43.57588        -0.60903
C         23.18588        45.82642        -0.69531
C         22.00346        46.50711        -0.59014
C         23.25277        48.62152        -1.13881
C         21.99366        47.97711        -0.66861
C         23.24493        50.08978        -1.40463
C         21.93313        50.83019        -1.44886
C         23.17129        52.96127        -1.15245
C         21.96763        52.27340        -1.15724
C         23.18171        54.40680        -1.02250
C         21.97642        55.10510        -1.02268
C         23.23587        57.31217        -0.97935
C         21.94496        56.55292        -1.25727
C         23.13369        58.73034        -0.66928
C         21.92232        59.41260        -0.91519
C         23.11496        61.54501        -0.61351
C         21.91581        60.83416        -0.84536
C         24.32764         4.47936         1.13003
C         25.38018         6.66010         1.37094
C         24.17847         5.87993         1.24230
C         25.55098         8.04866         1.27374
C         24.48634         8.96077         1.41920
C         25.72288        10.77090         0.29175
C         24.50912        10.28251         0.88721
C         25.69320        11.97826        -0.40344
C         24.46212        12.66347        -0.64784
C         25.65592        14.68266        -1.81327
C         24.44410        13.82796        -1.45319
C         25.64620        15.97819        -0.95251
C         24.45138        16.92704        -1.20421
C         25.69601        18.88585        -0.26370
C         24.43496        18.22602        -0.59363
C         25.71563        20.20811         0.13421
C         24.45525        20.95609         0.40902
C         25.69423        23.13945         0.67178
C         24.41696        22.43812         0.44868
C         25.70526        24.62285         0.55872
C         24.43266        25.32081         0.31014
C         25.66729        27.46104         0.37896
C         24.48752        26.74296         0.16481
C         25.65696        28.87398         0.54025
C         24.48478        29.62219         0.44771
C         25.66690        31.72117         0.98815
C         24.48487        31.03494         0.75277
C         25.69049        33.11887         1.34149
C         24.49806        33.83578         1.38100
C         25.81204        35.87304         1.55596
C         24.46636        35.26152         1.85272
C         26.00958        37.05976         0.81710
C         24.15920        38.09535         0.69673
C         25.69428        40.05505         0.28482
C         24.43018        39.51049         0.63142
C         25.77371        41.45129        -0.05620
C         24.49190        42.13478        -0.39604
C         25.78653        44.34483        -0.69552
C         24.48169        43.60456        -0.74669
C         25.74028        45.81496        -0.23607
C         24.47468        46.53163        -0.70843
C         25.72910        48.67777        -0.62499
C         24.49455        47.89000        -0.80851
C         25.72382        50.15835        -0.87106
C         24.47914        50.88179        -1.22710
C         25.72654        53.01718        -1.47788
C         24.44316        52.24693        -1.25663
C         25.66107        54.44891        -1.01111
C         24.45733        55.10396        -0.92044
C         25.71065        57.29480        -0.71486
C         24.42773        56.53785        -0.43680
C         25.63305        58.80307        -0.87800
C         24.38242        59.42116        -0.18291
C         24.30017        60.91003        -0.33359
C         26.94650         8.63445         1.07562
C         28.14831        10.59407         0.06825
C         26.96031        10.02153         0.44283
C         28.21733        11.90875        -0.54462
C         26.93762        12.51055        -0.99541
C         28.20764        14.66821        -1.66855
C         26.93435        13.88310        -1.61451
C         28.13968        16.12547        -1.35883
C         26.97202        16.72465        -0.98644
C         28.25478        18.82653        -0.42147
C         26.97770        18.04115        -0.21455
C         28.28521        20.20572         0.09354
C         26.99479        20.91158         0.41239
C         28.18864        23.20090         0.07241
C         27.01213        22.42111         0.55508
C         28.16111        24.62371        -0.01908
C         26.97019        25.30855         0.24988
C         28.13059        27.49340         0.01451
C         26.97460        26.74567         0.62531
C         28.14240        28.95174         0.29588
C         26.93690        29.55244         0.99323
C         28.24085        31.65715         1.14945
C         26.95706        31.03503         0.63136
C         28.20626        32.98119         1.77573
C         26.94552        33.74390         1.71907
C         28.23812        35.89445         2.01978
C         26.98492        35.13664         1.84878
C         28.24353        37.42050         1.63483
C         27.05659        37.94077         0.93213
C         28.23219        40.09652         0.51586
C         27.01669        39.25069         0.14676
C         28.21116        41.46219         0.34403
C         26.99628        42.13998        -0.08909
C         28.31255        44.38284        -0.26415
C         27.04702        43.58432        -0.45281
C         28.28532        45.87339        -0.35376
C         27.03050        46.56328        -0.58297
C         28.23489        48.71465        -0.87293
C         27.00664        47.93620        -0.69667
C         28.22022        50.19086        -0.78996
C         27.00904        50.89192        -0.95742
C         28.18901        53.02178        -0.85310
C         26.98136        52.29262        -1.02834
C         28.12307        54.47304        -0.84498
C         26.92574        55.15920        -0.86901
C         26.87928        56.61821        -0.83889
C         29.40036        12.56276        -0.75177
C         30.65712        14.74850        -0.91049
C         29.48516        13.94070        -1.27500
C         30.68789        16.11887        -1.09019
C         29.44414        16.88489        -1.49055
C         30.67979        18.97860        -0.89058
C         29.41963        18.24901        -0.85634
C         30.70023        20.36603        -0.76147
C         29.50684        21.03369        -0.21528
C         30.61315        23.26640        -0.87864
C         29.33973        22.48848        -0.46606
C         30.58720        24.71393        -0.67959
C         29.39476        25.38595        -0.35568
C         30.50168        27.65820        -0.75517
C         29.38274        26.80607        -0.31888
C         30.51144        29.17834        -0.47712
C         29.49657        29.55454         0.59802
C         30.70329        31.73563         0.92479
C         29.44250        31.03849         0.88361
C         30.76647        33.06925         1.39888
C         29.54452        33.72152         1.93479
C         30.71081        35.91689         1.93590
C         29.52800        35.20774         1.97399
C         30.72524        37.34527         1.67316
C         29.54107        38.01015         1.33267
C         30.77761        40.16915         1.11193
C         29.51949        39.38163         0.79789
C         30.63242        41.64217         1.30939
C         29.37819        42.29098         0.80380
C         30.67597        44.52331         0.67567
C         29.50978        43.70848         0.33337
C         30.59984        46.01835         0.66221
C         29.45653        46.58080        -0.14999
C         30.73120        48.80121        -0.19002
C         29.54654        47.98501        -0.54466
C         30.66232        50.19100        -0.32827
C         29.44168        50.90372        -0.61747
C         29.39273        52.32261        -0.63340
C         31.89733        16.84595        -0.94896
C         33.14115        18.98482        -0.92891
C         31.92982        18.26264        -0.98868
C         33.16174        20.39957        -0.86468
C         31.91588        21.10938        -0.83964
C         33.11669        23.23298        -0.80267
C         31.90549        22.53498        -0.83784
C         33.12156        24.68703        -1.08704
C         31.82534        25.44684        -1.01703
C         33.08236        27.66088        -0.67190
C         31.84968        26.95165        -0.98495
C         33.10635        29.08132        -0.41391
C         31.87051        29.78994        -0.13170
C         33.10557        31.91235         0.30158
C         31.87776        31.09628         0.37264
C         33.19182        33.19943         1.02421
C         31.98441        33.78939         1.46464
C         33.26336        35.89735         2.13645
C         31.96658        35.09847         2.23980
C         33.26062        37.39455         1.98550
C         31.97194        38.09540         1.72657
C         33.23833        40.22955         1.69237
C         31.96483        39.46635         1.64406
C         33.21610        41.71243         1.49959
C         31.89906        42.44558         1.48806
C         33.19744        44.59287         0.84383
C         31.90845        43.90232         1.14196
C         33.13223        46.00864         0.60702
C         31.93281        46.71013         0.42590
C         31.91737        48.09953         0.15932
C         34.37118        21.14093        -0.73837
C         35.57713        23.30859        -0.51490
C         34.36147        22.53700        -0.68497
C         35.61662        24.67939        -0.57680
C         34.42246        25.48313        -1.04882
C         35.60815        27.56599        -0.23076
C         34.29095        26.85244        -0.37313
C         35.58474        28.98940        -0.75770
C         34.34823        29.73314        -0.29569
C         35.66372        31.79054         0.43877
C         34.41957        31.17972        -0.04072
C         35.68934        33.11250         0.91805
C         34.45977        33.80136         1.23051
C         35.82238        35.93444         1.60936
C         34.53297        35.12829         1.85893
C         35.73032        37.38872         1.42341
C         34.51107        38.09886         1.56831
C         35.66454        40.22856         1.02904
C         34.47778        39.48379         1.37237
C         35.62641        41.61819         0.83129
C         34.32174        42.34264         0.66785
C         34.35762        43.85437         0.76287
C         36.84511        25.41523        -0.42971
C         38.09601        27.54031        -0.36294
C         36.87003        26.79282        -0.39402
C         38.13290        28.91331        -0.35168
C         36.91207        29.79151        -0.60698
C         38.21635        31.60425         0.62540
C         36.87850        30.95213         0.38520
C         38.24471        33.07451         0.91383
C         36.96144        33.82181         1.00536
C         38.18193        35.98771         0.78283
C         36.99895        35.20835         1.08080
C         38.12446        37.35794         0.77652
C         36.90501        38.09801         1.02199
C         36.87530        39.48651         0.86936
C         39.38228        29.63034        -0.29501
C         40.61891        31.75206        -0.17234
C         39.42383        30.96331         0.03758
C         40.65592        33.08923         0.03386
C         39.51028        33.82892         0.61637
C         39.46917        35.32346         0.34750
O         26.90460        12.70429        -2.46893
O         20.18297         9.83268        -1.48826
O         33.68964        31.98926        -1.03621
O         24.99461        37.32444        -0.11432
O         32.37040        24.96245        -2.32020
O         25.69700        23.97073         1.90445
O         21.12506        50.39415        -2.60576
O         11.15795        35.42300         2.65592
O         16.42708        29.62057        -1.39368
O         21.41102        48.62428         0.53792
O         23.67780        20.31736         1.48589
O         29.64433        22.78670        -1.87377
O         30.50686        39.69446        -0.25123
O         22.18787        10.58835         1.45051
O         23.84745        43.89337        -2.03755
O         29.27688        20.51567         1.13415
O         23.60157        41.39370        -1.28642
O         20.17119        27.16853        -1.51011
O          9.62784        30.22416         2.72671
O         19.38185        39.41870         2.83306
O         20.74226        53.65203         0.48124
O         23.33242         8.53397         2.07180
O         34.86068        27.15818         0.95401
O         27.11997        21.53870         1.73299
O         23.30044        49.11832        -2.51815
O         33.50437        41.17702         2.81018
O         39.18997        33.45186         1.98816
O         31.02567        27.43937        -2.10601
O         22.83148        56.98560        -2.35218
O         25.60479        49.60624         0.51789
O         23.17406        32.79121        -0.41019
O         29.53750        17.21613        -2.97795
O         21.49824        33.14185         2.72341
O         20.68949        36.63837         3.20855
O         28.91753        33.05299         3.06501
O         35.48933        35.34563         2.92108
O         23.18418        15.43604        -2.66302
O         23.27920        28.34801        -1.28419
O         13.67539        38.23900         2.31153
O         31.81450        43.41653         2.56835
O         15.66326        19.33287         0.88454
O         29.59369        42.07415         2.23876
O         25.65099        45.74603         1.16246
O         28.10861        36.96209         3.00866
O         37.56769        30.77241         1.65313
O         26.58187        43.94864        -1.82735
O         12.66129        39.36769        -0.98390
O         16.41064        45.91185        -2.23704
O         29.11722        48.21643        -1.92922
O         13.91263        25.16283        -1.76270
O         29.10262        14.18700        -2.70950
O         27.83005        28.49572        -1.03375
O         29.33704        43.81105        -1.15539
O         11.92212        28.90610         2.19753
O         33.38154        36.76797         3.30847
O         27.22036        26.76062         2.09074
H         26.74471        25.98822         2.47483
O         25.45966        15.51135         0.40852
H         25.78329        16.22253         1.01667
O         20.46046        14.47641        -3.07436
H         21.23787        14.82860        -3.56129
O         17.45061        38.63191        -0.69461
H         17.30019        39.23876        -1.45206
O         19.04502        33.68166         3.10493
H         19.90562        33.72136         3.58849
O         35.41650        28.77084        -2.20572
H         35.17856        27.82433        -2.37813
O         20.74865        46.11462         1.37377
H         20.96516        47.07244         1.50445
O         22.41202        38.65354         3.36238
H         22.19198        37.86255         3.90525
O         30.23976        46.33056         2.06581
H         30.84823        45.83176         2.65488
O         18.11570        23.19022         1.88501
H         18.02264        22.25360         2.16470
O         16.64156        30.67008         2.05219
H         16.79796        31.45270         2.62348
O         17.99706        37.17731         3.44078
H         18.87667        36.86409         3.76881
O         15.87991        32.17599        -1.24247
H         15.98849        31.31532        -1.71980
O         22.31389        43.09018         1.70760
H         22.10275        42.46651         2.43354
O         17.04885        17.25832        -3.01184
H         17.13268        16.41203        -3.50049
O         30.11449        29.84526        -1.68958
H         30.43839        29.30288        -2.44413
O         34.73957        25.87779        -2.42537
H         33.92874        25.68837        -2.96284
O         24.37775        35.22956         3.32592
H         25.22704        34.87632         3.66923
O         24.57453        59.15161         1.25675
H         23.87144        59.63295         1.74311
O         19.84077        14.43386         0.52812
H         19.09109        14.14227         1.08780
O         20.52824        24.71128         2.01790
H         19.71455        24.19678         2.25220
O         12.40481        26.23326         1.99031
H         12.36894        27.07534         2.50896
O         27.08601        29.43651         2.42119
H         27.05203        28.46872         2.64090
O         16.49429        39.05484         2.77593
H         16.72884        38.52817         3.57561
O         14.69221        42.35020         1.70425
H         13.86885        42.73227         2.07145
O         29.95096        28.93360         1.83078
H         29.31532        29.18531         2.53908
O          9.73987        35.39465        -0.66052
H          8.98861        34.99581        -1.14869
O         25.58844        59.10816        -2.27631
H         24.84315        58.61553        -2.68104
O         10.56422        37.92648         2.86192
H         11.10957        37.27022         3.35572
O         33.87348        42.06530        -0.72028
H         34.54938        42.42486        -1.33355
O         15.67981        41.37959        -1.71865
H         15.66927        42.28220        -2.10528
O         31.85457        34.68538         3.62545
H         32.18202        35.43450         4.17440
O         25.84669        53.08490        -2.94593
H         26.63599        53.62999        -3.15138
O         27.03319        17.60022         1.19775
H         27.08608        18.40459         1.76086
O         25.64792        15.07167        -3.19147
H         25.90167        14.28654        -3.72269
O         27.14440        38.93236        -1.26698
H         26.34296        38.42326        -1.52066
O         30.52140        16.36541        -3.59548
H         30.07394        15.47253        -3.59070
O         27.02658        31.10083        -0.81861
H         26.74056        31.99018        -1.11258
O         37.17126        30.47034        -1.86155
H         36.68962        29.96394        -2.56139
O          7.95773        28.18728         2.80991
H          8.32043        28.87956         3.41028
O         21.50040        42.96302        -1.86039
H         22.34044        42.81347        -2.36366
O         24.26167        56.45758         1.00826
H         24.44740        57.35874         1.37766
O         27.78173         7.74637         0.33119
H         27.46159         7.71772        -0.59338
O         39.67282        35.55307        -1.06010
H         38.87383        35.26318        -1.54609
O         12.64341        29.15219        -1.35566
H         13.31710        28.81701        -1.98570
H          4.89094        31.03387         0.75251
H          4.83557        33.50084         0.76277
H          7.40510        26.85182         0.41605
H          6.11338        28.95841         0.91415
H          5.97906        35.64987         1.00230
H          7.13136        37.84236         0.90788
H          9.84443        22.67451        -0.66501
H          8.59658        24.82603        -0.18456
H          8.35524        39.89958         0.12371
H          9.86174        42.05541        -0.18814
H         12.35304        18.42625        -1.11431
H         11.10292        20.50459        -0.82731
H         11.07659        44.08922        -0.54022
H         12.26572        46.24781        -0.75065
H         14.84615        14.17757        -1.29458
H         13.58807        16.26069        -1.31247
H         13.52720        48.43727        -0.89862
H         14.74883        50.59270        -0.96387
H         16.96944        10.14386        -0.56457
H         16.07330        12.10281        -1.12596
H         16.00557        52.78618        -0.96562
H         17.26125        54.93881        -1.06559
H         19.75179         5.50019        -0.23184
H         18.16361         7.59454        -0.00450
H         18.49492        57.09684        -1.20259
H         19.76117        59.24384        -1.16815
H         23.42748         2.56935         0.66786
H         21.22519         3.53018         0.02705
H         23.09081        62.64392        -0.65316
H         20.98133        61.38143        -1.02884
H         25.31434         4.03138         1.31814
H         26.31349         6.07187         1.35059
H         26.55245        59.28689        -0.46355
H         25.20826        61.49528        -0.12933
H         27.41727         8.71838         2.09666
H         29.08873        10.04674         0.23218
H         29.06444        55.03537        -0.74884
H         27.82491        57.16651        -0.97617
H         30.33759        12.10272        -0.40108
H         31.56363        14.22578        -0.56930
H         31.56690        50.78614        -0.12723
H         30.32019        52.89133        -0.46733
H         32.83667        16.28947        -0.81366
H         34.09351        18.43416        -0.92035
H         34.08144        46.55111         0.47148
H         32.86925        48.65332         0.19101
H         35.32950        20.60265        -0.69692
H         36.50365        22.75851        -0.28951
H         36.55748        42.14252         0.56520
H         35.30308        44.36629         0.52095
H         37.79193        24.85500        -0.39262
H         39.04117        26.97840        -0.29973
H         39.02501        37.92934         0.50644
H         37.79718        40.01896         0.59279
H         40.31161        29.10314        -0.56193
H         41.49556        31.23869        -0.59517
H         41.55390        33.66695        -0.22903
H         40.33381        35.80767         0.86971
