         270
 CSIRO Nanostructure Databank - Neutral Graphene Oxide Data Set
C        -10.96403         0.40128         0.93786
C         -9.73949         1.18636         0.51328
C         -8.47174         0.39878         0.90871
C         -7.23265         1.18853         0.36985
C         -6.44340         0.64438        -0.82525
C         -5.15850         1.44454        -1.11776
C         -3.83741         0.74624        -1.25044
C         -2.66556         1.46604        -1.31552
C         -1.36791         0.77550        -1.28356
C         -0.16396         1.45714        -1.38506
C          1.13046         0.73004        -1.46074
C          2.44345         1.43659        -1.65425
C          3.74633         0.68228        -1.35094
C          5.05578         1.40024        -1.41796
C          6.31872         0.71824        -0.94043
C          7.57429         1.48181        -0.71432
C          8.74881         0.79984        -0.07141
C         10.10415         1.48936        -0.25101
C         11.14726         0.71551         0.54082
C         -9.65401         2.56930         1.15218
C         -8.48395         3.23644         1.21866
C         -7.26051         2.65080         0.59893
C         -6.43849         3.59679        -0.26095
C         -5.16105         2.92060        -0.81707
C         -3.79346         3.58629        -0.58720
C         -2.73694         2.98457        -1.55606
C         -1.36899         3.70858        -1.54960
C         -0.08070         2.92529        -1.56450
C          1.24892         3.59669        -1.36764
C          2.43418         2.93682        -1.57325
C          3.75351         3.65095        -1.68733
C          5.06859         2.90316        -1.61821
C          6.25384         3.65700        -1.03558
C          7.50951         2.96668        -0.61151
C          8.78330         3.71141        -0.41167
C         10.01005         2.98148         0.13615
C         -8.31384         4.57786         1.89073
C         -7.10932         5.36720         1.39429
C         -6.17272         4.88042         0.50464
C         -5.08053         5.74696         0.00856
C         -3.90237         5.09977        -0.71034
C         -2.64937         5.91362        -0.92554
C         -1.34174         5.20498        -1.26087
C         -0.02440         5.84734        -0.91421
C          1.24462         4.98833        -0.75551
C          2.44442         5.82666        -1.15043
C          3.74923         5.15728        -1.53854
C          5.01078         5.85701        -1.18162
C          6.35001         5.15670        -1.38939
C          7.50489         5.81114        -0.62861
C          8.75139         5.06835        -0.46136
C         -6.98446         6.70177         1.88715
C         -5.92760         7.53335         1.53315
C         -4.89474         7.07973         0.62792
C         -3.73009         7.82113         0.46593
C         -2.60693         7.32442        -0.37205
C         -1.27227         8.01837        -0.25822
C          0.00588         7.18270        -0.14582
C          1.23842         8.07492        -0.50739
C          2.49401         7.22534        -0.67208
C          3.69337         7.85501        -0.82311
C          4.97036         7.17285        -0.80020
C          6.05174         7.70999         0.13011
C          7.38984         7.06340        -0.12072
C         -5.81948         8.84849         2.11017
C         -4.69392         9.59134         1.93303
C         -3.57417         9.08354         1.17345
C         -2.38348         9.78516         1.19201
C         -1.17255         9.30370         0.52293
C          0.15724         9.70826         1.03655
C          1.32653         9.18512         0.57442
C          2.58597         9.68366         1.15293
C          3.75767         9.69139         0.46682
C          5.14306        10.00652         0.83637
C          6.15974         9.19286         0.46896
C        -11.01475        -0.93974         0.80263
C         -9.89509        -1.71761         0.27173
C         -8.49776        -1.13231         0.50227
C         -7.55777        -1.53101        -0.64267
C         -6.19109        -0.84303        -0.49053
C         -5.12948        -1.47095        -1.34197
C         -3.82194        -0.74467        -1.60992
C         -2.55876        -1.40215        -1.04393
C         -1.39752        -0.66018        -1.02557
C         -0.11976        -1.47342        -1.00661
C          1.13244        -0.61314        -0.81827
C          2.40686        -1.25216        -0.35843
C          3.73905        -0.48950        -0.34593
C          4.96812        -1.38850        -0.34741
C          6.25529        -0.59598        -0.14530
C          7.52220        -1.46613        -0.42931
C          8.74130        -0.68085         0.02518
C         10.06878        -1.42940        -0.10679
C         11.13800        -0.62637         0.60382
C        -10.06091        -2.95206        -0.27033
C         -9.03999        -3.68173        -1.13514
C         -7.73386        -2.90215        -1.24280
C         -6.45246        -3.62127        -1.41258
C         -5.30482        -2.77246        -1.68527
C         -3.52291        -3.68412        -1.00148
C         -2.56822        -2.78212        -0.58068
C         -1.42403        -3.34706         0.18698
C         -0.13109        -2.53744         0.12123
C          1.12061        -3.37948         0.05039
C          2.38500        -2.77979        -0.51412
C          3.67961        -3.50826        -0.14781
C          4.94214        -2.72417        -0.08248
C          6.16087        -3.47157         0.38745
C          7.48184        -2.79114         0.30120
C          8.76115        -3.55904         0.35007
C          9.93957        -2.89881         0.26949
C         -8.82222        -5.16549        -0.90605
C         -7.59378        -5.76143        -1.01068
C         -6.36471        -4.95949        -1.10351
C         -5.22470        -5.64449        -0.35766
C         -3.91192        -4.86272        -0.21175
C         -2.74001        -5.56207         0.42730
C         -1.42378        -4.82622         0.44647
C         -0.15117        -5.58126         0.18786
C          1.07253        -4.75090         0.57226
C          2.33195        -5.48570         0.85926
C          3.63587        -4.88699         0.43254
C          4.85625        -5.50840         1.04577
C          6.14207        -5.00019         0.39159
C          7.38507        -5.65607         0.98653
C          8.68143        -5.08614         0.42047
C         -7.40909        -7.20907        -1.06716
C         -6.17988        -7.83868        -1.06694
C         -4.96960        -7.09051        -0.72888
C         -3.80270        -7.72103        -0.37703
C         -2.85584        -7.07673         0.62992
C         -1.48154        -7.75115         0.76778
C         -0.18889        -6.99285         0.74938
C          1.09520        -7.75608         0.64421
C          2.35516        -6.98180         0.81596
C          3.48560        -7.68623         1.57258
C          4.78240        -6.87170         1.64195
C          6.07266        -7.58853         2.06299
C          7.32763        -6.88211         1.55142
C         -6.05694        -9.29284        -1.06749
C         -4.87868        -9.92031        -0.86466
C         -3.57463        -9.16670        -0.76177
C         -2.48191        -9.87985         0.01354
C         -1.39134        -9.22690         0.56414
C         -0.15465        -9.89516         0.85305
C          1.09985        -9.22110         0.94084
C          2.33088        -9.84752         1.11199
C          3.65122        -9.09167         0.96578
C          4.89705        -9.76557         1.49798
C          6.01029        -9.08279         1.81025
O          4.54804         3.30145        -2.88811
O         -7.96754        -1.66659        -2.00952
O         -2.93140         7.05259        -1.77409
O         -3.64102        -4.74966         1.21786
O          6.75664        -2.83948         1.56588
O          4.68562        -5.64659         2.47911
O          2.86439         5.74135        -2.54688
O          8.53469         0.12563         1.20862
O         -0.84876        -7.25192         2.01083
O          3.77446        -4.72329        -0.99882
O          6.44005         3.36941         0.36831
O          1.93719        -7.43623        -0.51676
O          3.70850         9.25414        -0.87285
O         -5.39061         2.44413        -2.16263
O          6.28647        -0.22851         1.20459
O          6.14428        -5.45380        -0.94061
O         -0.54650         5.92859        -2.24709
O         -1.47418        -3.89093         1.56028
O         -0.70379         3.40555        -2.81849
O          1.75317         0.82005        -2.78663
O          4.55888         0.58608        -2.53922
O         -7.99608        -1.86565         1.59489
O         -4.19276        -3.47203        -2.20980
O          6.65735         5.22823        -2.74416
O          7.31803         0.85282        -2.02061
O         -6.42307         1.78198         1.43021
O         -1.25003         9.26612        -0.96394
O          1.54578        -0.59068         0.57561
O          1.60931        -4.89627         1.96661
O         -5.00549         5.61745        -1.47635
O         -9.76040         1.32256        -0.92298
H        -10.54350         1.85205        -1.17699
O          1.37259         4.70382         0.68078
H          2.22080         4.23858         0.84360
O         10.43358         1.43088        -1.65012
H         10.58206         0.48106        -1.88535
O         -0.14502        -2.13133        -2.28399
H          0.76339        -2.45224        -2.51101
O         -9.49426         5.37803         1.76601
H         -9.66236         5.52624         0.81277
O         -3.37637         3.34048         0.77408
H         -3.56423         2.40649         1.01006
O          3.77556         0.18980         0.93456
H          4.66736         0.05245         1.37161
O          0.04005         6.87765         1.26888
H          0.70660         6.16585         1.42830
O          3.91068        -8.93223        -0.45320
H          4.15735        -9.80401        -0.82488
O          1.00392         8.67238        -1.78725
H          1.81327         9.16691        -2.03809
O         10.39272        -1.40386        -1.52991
H          9.67423        -1.89352        -1.99799
O          2.33558        -2.92217        -1.98297
H          2.70526        -3.81178        -2.20544
O         -3.00965        -9.17184        -2.13001
H         -2.27877        -8.51905        -2.16567
O         -8.43965         0.44227         2.32946
H         -8.13597        -0.45969         2.62041
O         -0.12104        -1.85728         1.40509
H         -0.34975        -2.53484         2.08463
O          3.01953        -7.86804         2.92078
H          3.19129        -7.03820         3.41748
O          7.63975        -1.77103        -1.81898
H          7.57392        -0.92018        -2.32544
O         -0.07951        -5.74731        -1.25411
H          0.72970        -6.28504        -1.44929
O         -7.26538         3.96996        -1.38496
H         -6.70635         4.52884        -1.97436
O         -7.27104         0.72128        -1.98364
H         -7.08686         1.58441        -2.42302
O         -3.66098        -0.78028        -3.05422
H         -2.75985        -0.46254        -3.27556
O         -5.82085        -5.74307         0.96879
H         -5.14720        -6.15383         1.56572
O          8.75384        -5.56931        -0.92604
H          7.81171        -5.57663        -1.27581
O          9.97038         3.08357         1.56795
H          9.16081         2.63611         1.89343
O         -3.23117         3.19985        -2.88453
H         -2.46505         3.14136        -3.50012
O         -3.52078        -7.28582         1.90445
H         -2.90932        -6.96130         2.60346
O          5.61715         7.12795         1.42664
H          6.34293         7.26523         2.07252
O         -9.64369        -3.64101        -2.46705
H         -9.47698        -2.73619        -2.81928
O          6.15998        -7.49696         3.51025
H          5.94913        -6.56522         3.74727
O         -5.72227        -0.94057         0.86137
H         -6.41568        -1.40834         1.41969
H         11.91908        -1.16445         1.16208
H         11.93806         1.28627         1.05067
H         10.93583         3.50703        -0.20244
H          9.65956         5.64194        -0.21580
H          8.26344         7.50984         0.38650
H          7.18347         9.52613         0.71299
H          5.36851        10.97217         1.31878
H          2.54774        10.08237         2.17801
H          0.17826        10.49100         1.81170
H         -2.31675        10.69864         1.80380
H         -4.59659        10.58051         2.40303
H         -6.64780         9.22063         2.72962
H         -7.75704         7.07627         2.57428
H         -8.16650         4.40184         2.99200
H        -10.56305         3.01831         1.58523
H        -11.84630         0.95020         1.30389
H        -11.94164        -1.48488         1.04398
H        -11.08994        -3.34212        -0.35119
H         -9.72639        -5.79239        -0.85411
H         -8.31589        -7.83126        -1.13708
H         -6.97812        -9.88411        -1.18416
H         -4.83250       -11.01965        -0.85189
H         -2.40408       -10.96676        -0.15581
H         -0.15748       -10.99668         0.86610
H          2.35809       -10.93776         1.27299
H          4.94024       -10.86571         1.43679
H          6.91761        -9.64340         2.08530
H          8.27407        -7.37324         1.83488
H          9.56278        -5.48743         0.98609
H         10.88042        -3.47071         0.31997
