         269
 CSIRO Nanostructure Databank - Neutral Graphene Oxide Data Set
C        -10.91850         0.96144         0.38416
C         -9.86536         1.66523         1.21070
C         -8.59208         0.80775         1.35835
C         -7.26057         1.48142         1.52995
C         -5.89122         0.76574         1.50209
C         -4.95546         1.37162         0.46087
C         -3.60314         0.72171         0.43703
C         -2.39534         1.50568         0.00691
C         -1.09627         0.74522        -0.11547
C          0.15483         1.54048        -0.43795
C          1.29646         0.68924        -0.96978
C          2.58719         1.42265        -0.92596
C          3.74791         0.75611        -0.62701
C          4.95884         1.51934        -0.39607
C          6.15093         0.74697         0.07234
C          7.40777         1.54533         0.12674
C          8.33776         0.72058         0.94288
C          9.51083         1.47002         1.50038
C         10.55645         0.66055         2.11604
C         -9.54370         3.09082         0.64004
C         -8.41294         3.77347         1.36711
C         -7.19642         2.98637         1.46740
C         -5.97371         3.66361         0.85094
C         -5.01112         2.81815         0.08325
C         -3.94567         3.47111        -0.84826
C         -2.54071         2.77886        -0.80846
C         -1.29647         3.47863        -1.33611
C          0.06917         2.75953        -1.38673
C          1.33447         3.54225        -1.11077
C          2.52885         2.87149        -1.03687
C          3.82793         3.62702        -1.15683
C          5.01062         2.87163        -0.59205
C          6.30668         3.63582        -0.56097
C          7.42121         2.90037         0.12057
C          8.52935         3.62597         0.73886
C          9.57014         2.83092         1.38944
C         -8.33223         5.24678         1.69054
C         -7.14878         5.95969         0.99560
C         -5.92349         5.15540         0.70297
C         -4.73767         5.81701         0.07705
C         -3.79891         5.02851        -0.79895
C         -2.56963         5.72928        -1.32671
C         -1.27464         4.97243        -1.73673
C         -0.05379         5.70373        -1.10928
C          1.24900         4.98775        -0.87446
C          2.52645         5.72527        -0.66807
C          3.73072         5.05002        -0.64220
C          4.95233         5.71802        -0.22673
C          6.14882         5.06286        -0.11712
C          7.40488         5.84810         0.23058
C          8.51782         4.98984         0.78393
C         -7.23728         7.25174         0.60613
C         -6.22862         7.87277        -0.36105
C         -4.80672         7.35331        -0.01949
C         -3.77795         8.01960        -0.98949
C         -2.47570         7.24551        -1.23883
C         -1.18238         7.99533        -1.34420
C          0.13037         7.21886        -1.33464
C          1.10924         7.77182        -0.30945
C          2.43917         7.11671        -0.27199
C          3.54632         7.80908         0.16178
C          4.93146         7.22977        -0.03835
C          5.92193         7.69025         1.02564
C          7.07017         6.98433         1.18323
C         -6.12945         9.39602        -0.36973
C         -4.98837        10.10058        -0.51463
C         -3.58395         9.50338        -0.54164
C         -2.48486        10.21257        -1.40051
C         -1.18789         9.46263        -1.05913
C         -0.12523        10.03594        -0.45241
C          1.01446         9.23036         0.06086
C          2.24388         9.86797         0.55284
C          3.42292         9.16367         0.66947
C          4.56312         9.71423         1.38780
C          5.68386         8.98541         1.63580
C        -10.88179        -0.35698         0.09821
C         -9.72147        -1.19867         0.37994
C         -8.59666        -0.60707         0.91174
C         -7.35533        -1.39655         1.02929
C         -6.01770        -0.73662         1.23320
C         -4.78737        -1.48065         0.81434
C         -3.55553        -0.76330         0.52393
C         -2.40609        -1.44800         0.18244
C         -1.11220        -0.75039        -0.08692
C         -0.00708        -1.56583        -0.76465
C          1.28125        -0.79573        -1.06687
C          2.64846        -1.49761        -1.13802
C          3.73792        -0.74451        -0.35999
C          5.06065        -1.45431        -0.62395
C          6.27276        -0.63352        -0.55393
C          7.59983        -1.34762        -0.38693
C          8.72707        -0.58220         0.25242
C          9.88550        -1.34313         0.82134
C         10.70015        -0.66283         1.85699
C         -9.74770        -2.62817         0.09021
C         -8.62819        -3.41317         0.13354
C         -7.29350        -2.71434         0.26188
C         -6.15171        -3.56384         0.78895
C         -4.84191        -2.86172         0.76613
C         -3.58894        -3.63128         0.83210
C         -2.31961        -2.87907         0.50750
C         -1.02413        -3.61981         0.30195
C          0.21712        -2.87147        -0.03308
C          1.48573        -3.64479        -0.27616
C          2.68893        -2.94516        -0.70362
C          3.88883        -3.63143        -0.79935
C          5.13876        -2.83370        -0.78826
C          6.41661        -3.50717        -0.63970
C          7.57740        -2.81587        -0.33088
C          8.78769        -3.50530         0.13356
C          9.85814        -2.80536         0.69344
C         -8.64323        -4.87025        -0.30862
C         -7.42506        -5.71474         0.07642
C         -6.20358        -5.04869         0.63238
C         -4.90015        -5.72548         0.30473
C         -3.58742        -5.15851         0.82944
C         -2.43751        -5.75708         0.00103
C         -1.13612        -5.03872        -0.19254
C          0.10556        -5.74941        -0.81354
C          1.45005        -5.14520        -0.42562
C          2.69583        -5.81737        -0.85335
C          3.88689        -5.09078        -0.86815
C          5.20257        -5.78490        -0.90780
C          6.52292        -4.99176        -0.92368
C          7.64725        -5.68962        -0.15816
C          8.80032        -4.92509         0.15022
C         -7.40803        -7.05467        -0.12968
C         -6.20809        -7.89129         0.29298
C         -4.92739        -7.16565        -0.06286
C         -3.64922        -7.90945        -0.15389
C         -2.47409        -7.23609        -0.16584
C         -1.21637        -7.99621        -0.38940
C          0.07172        -7.27578        -0.61909
C          1.34292        -7.94445        -0.28572
C          2.61183        -7.29573        -0.71867
C          3.89679        -7.98055        -0.32559
C          5.19080        -7.21987        -0.43329
C          6.32685        -7.73974         0.43708
C          7.62720        -7.03923         0.15014
C         -6.15125        -9.34663        -0.12260
C         -5.00336       -10.01785        -0.32034
C         -3.65118        -9.37105        -0.53742
C         -2.42751       -10.05989         0.06562
C         -1.23936        -9.41222         0.08557
C          0.07040       -10.07095         0.48915
C          1.35500        -9.28318         0.18540
C          2.55491        -9.93639         0.46401
C          3.83666        -9.16795         0.62381
C          5.14514        -9.92588         0.50817
C          6.30714        -9.25762         0.41060
O         -8.01549         1.02586         2.70131
O          6.00293         0.46073         1.54429
O          0.73595         7.38812        -2.62807
H          0.03566         7.21942        -3.29878
O         -4.96157        -6.12361        -1.09719
O         -6.36682        -4.44004         1.94605
O         -4.50075         3.20723        -2.13924
H         -3.81175         3.40233        -2.81426
O         -6.09582         3.45097         2.29396
O         -3.73717         5.49243        -2.18244
O         -0.66390        -7.91553        -1.75953
O         -5.29079         0.91942         2.78779
H         -5.86154         0.44211         3.42910
O          0.07647        -5.48612        -2.22500
H         -0.77568        -5.83484        -2.57257
O          6.85548         2.43290        -2.56495
H          5.94648         2.22034        -2.89906
O         -5.67963         1.75254        -0.71434
O          5.47452         7.79081        -1.22730
O          4.77947        -0.16932        -2.96179
H          5.17032        -0.83770        -3.57794
O          5.41477        -6.91185        -1.83251
O         -2.79912         1.52666         1.39559
O          3.36331        -0.31426        -3.13110
O          1.03399         0.03366        -2.25636
O         -2.13456         2.63951        -2.19464
O         -1.93212         7.67521        -2.55519
O         -4.61630         7.86018         1.31855
H         -4.57864         7.09339         1.94337
O         -0.15116        -3.09486         1.35573
O          6.05856        -7.29839         1.80282
H          5.31374        -7.84327         2.16838
O         -9.55095         5.91201         1.39740
H         -9.62470         6.04704         0.43093
O          7.18631        -0.76896        -1.67376
O         -9.84125        -5.50022         0.15663
H         -9.81726        -5.52066         1.13533
O          3.32965        -8.19789        -1.63819
O          9.95544        -0.60881        -0.49538
O         -2.74537        -3.12330         1.91094
O         -6.73197         7.42133        -1.63486
H         -6.19432         7.87862        -2.32719
O          7.86677         6.47995        -0.99404
H          7.10680         7.05737        -1.30099
O         -0.74837        -0.00702         1.10886
O          6.99053        -5.00521        -2.30484
H          6.75070        -5.88593        -2.67795
O         -2.19873        -5.02029        -1.22824
O          6.72984         3.76287        -2.04177
O          0.16323       -11.37449        -0.08865
H          0.14764       -11.27843        -1.06320
O         -2.75328        10.25348        -2.78702
H         -2.80225         9.32377        -3.11177
O         -4.66881         5.45375         1.48360
O         -6.71573        -1.41039         2.33934
O          3.05263        -1.62101        -2.57339
O          0.53381         8.12937         0.96745
O         -3.46028        -9.43027        -1.98400
H         -2.64709        -8.92586        -2.20714
O          7.41209         0.28000         2.05510
O          1.66458        -4.56468         0.87908
O         -2.99230         9.65403         0.76010
H         -3.60409         9.27705         1.43459
O        -10.43873         1.85995         2.51399
H         -9.72631         1.69029         3.17489
O         -7.06875        -2.46524        -1.10704
O          4.06953         3.72847        -2.60398
H          4.93848         4.18715        -2.71646
O          0.24592         5.26867         0.22682
O          3.42812        -0.91161         1.04715
H          4.15172        -0.49502         1.57045
O          0.56587         2.12342         0.81791
H          0.34803         1.48754         1.53771
O          3.77560        -8.65446         2.00783
H          2.90817        -8.21457         2.13737
O         -9.11690         2.88438        -0.71887
H         -8.98762         3.74976        -1.15814
O         -4.38663         8.11403        -2.30429
H         -4.18941         7.26898        -2.77577
O         -6.20952        -7.92327         1.75599
H         -7.04126        -8.34857         2.05127
O         -0.55114        -1.98895        -2.03829
H         -0.29008        -1.32101        -2.71446
O         -1.14400         5.03179        -3.16354
H         -0.89515         4.13642        -3.48845
O          0.16093         2.39869        -2.78574
H          1.05399         2.03970        -2.97880
O         -3.43905        -5.61713         2.18385
H         -3.11755        -4.85661         2.72217
H         11.48709        -1.24402         2.36012
H         11.25162         1.15695         2.81008
H         10.44158         3.36796         1.79536
H          9.34957         5.51399         1.28181
H          7.83862         7.32191         1.89749
H          6.48848         9.41163         2.25496
H          4.45942        10.72137         1.81867
H          2.20164        10.92140         0.87068
H         -0.12258        11.11845        -0.25039
H         -2.39316        11.26794        -1.03932
H         -5.05627        11.20094        -0.53991
H         -7.08509         9.94523        -0.32570
H         -8.16812         7.80642         0.80990
H         -8.16803         5.33537         2.80328
H        -10.46876         3.72494         0.66517
H        -11.81193         1.54964         0.12586
H        -11.73149        -0.82241        -0.42369
H        -10.72223        -3.08378        -0.14499
H         -8.70148        -4.87217        -1.43124
H         -8.29800        -7.55530        -0.54327
H         -7.09616        -9.91379        -0.07590
H         -5.05098       -11.10117        -0.51661
H         -2.48250       -11.12315         0.34669
H          0.04740       -10.22528         1.60514
H          2.51955       -10.97783         0.81740
H          5.12575       -11.02602         0.51586
H          7.26028        -9.80462         0.34743
H          8.53901        -7.48855         0.57888
H          9.67637        -5.43791         0.57863
H         10.69272        -3.38036         1.12497
