         261
 CSIRO Nanostructure Databank - Neutral Graphene Oxide Data Set
C        -10.74515         0.93425         1.08126
C         -9.86666         1.61796         0.09884
C         -8.78388         0.83730        -0.56879
C         -7.52820         1.55780        -0.98224
C         -6.32391         0.75455        -1.37259
C         -5.08021         1.48329        -1.78976
C         -3.82279         0.68095        -1.81730
C         -2.63673         1.26112        -1.08453
C         -1.31465         0.64460        -1.45366
C         -0.05107         1.44600        -1.24336
C          1.24543         0.71868        -1.50550
C          2.55229         1.49579        -1.26880
C          3.88245         0.86403        -1.63030
C          5.20722         1.69951        -1.52212
C          6.48198         0.88460        -1.28299
C          7.72847         1.65947        -1.02344
C          8.87305         1.06968        -0.24538
C         10.20284         1.77057        -0.35381
C         11.40505         0.90384        -0.41149
C         -9.73204         3.09034         0.11916
C         -8.75472         3.74070        -0.54506
C         -7.71826         3.03917        -1.43096
C         -6.32676         3.78140        -1.42180
C         -5.04897         2.96990        -1.46667
C         -3.74338         3.56386        -0.95162
C         -2.67312         2.61681        -0.45089
C         -1.36920         3.12828         0.24420
C         -0.07289         2.74530        -0.49813
C          1.21293         3.18502         0.19573
C          2.53280         2.59588        -0.22194
C          3.84984         3.25023         0.19740
C          5.14276         2.77470        -0.40557
C          6.34980         3.69434        -0.39814
C          7.65688         3.15147        -0.89141
C          8.92998         3.87887        -0.63020
C         10.20758         3.15423        -1.01586
C         -8.83381         5.23642        -0.76258
C         -7.52147         5.93050        -0.50518
C         -6.28189         5.23496        -0.96303
C         -4.95925         5.85392        -0.58086
C         -3.69532         5.01909        -0.58197
C         -2.48847         5.57760         0.12943
C         -1.39358         4.63387         0.60114
C         -0.09422         5.26357         1.01451
C          1.20944         4.51008         0.94828
C          2.49505         5.26426         1.19208
C          3.84712         4.60830         0.91965
C          5.13665         5.39028         1.11308
C          6.51857         4.79660         0.68052
C          7.55696         5.77570         0.11956
C          8.84283         5.17990        -0.26032
C         -7.48977         7.20368        -0.06025
C         -6.21989         8.02022        -0.00769
C         -5.01959         7.10484         0.26163
C         -3.79205         7.72264         0.83654
C         -2.50562         6.96891         0.70814
C         -1.39417         7.20722         1.69697
C         -0.05703         6.76172         1.10923
C          1.19605         7.52933         1.28786
C          2.47852         6.76415         1.48847
C          3.75069         7.54664         1.60193
C          5.08280         6.89300         1.31598
C          6.15638         7.74535         0.69021
C          7.34610         7.10955         0.07809
C         -6.25698         9.13163         1.01636
C         -5.12922         9.71422         1.44353
C         -3.77837         9.27011         0.91925
C         -2.62711         9.87787         1.71172
C         -1.33952         9.69514         1.47430
C         -0.04256         9.76310         1.22102
C          1.10025         8.95988         1.84671
C          2.38525         9.70455         1.63481
C          3.74990         9.08526         1.65390
C          4.65873         9.70904         0.61852
C          5.78852         9.10460         0.22896
C        -10.58510        -0.35808         1.41649
C         -9.44527        -1.17066         0.91638
C         -8.51932        -0.55735        -0.08112
C         -7.65486        -1.40477        -0.97167
C         -6.45010        -0.74857        -1.60181
C         -5.20406        -1.58182        -1.90493
C         -3.87795        -0.85249        -1.87955
C         -2.63681        -1.55325        -1.31011
C         -1.32285        -0.83071        -1.73291
C         -0.02333        -1.63434        -1.95834
C          1.27048        -0.76263        -1.81223
C          2.62835        -1.46985        -1.76679
C          3.93225        -0.66773        -1.72972
C          5.20626        -1.35006        -1.19196
C          6.33931        -0.48321        -0.69079
C          7.53150        -1.11445        -0.03143
C          8.83993        -0.39154         0.08484
C         10.12782        -1.17736         0.08549
C         11.36190        -0.43985        -0.27814
C         -9.52613        -2.64668         0.96210
C         -8.72613        -3.44298         0.22111
C         -7.72358        -2.89720        -0.74968
C         -6.54820        -3.74788        -1.16814
C         -5.30478        -3.16871        -1.90223
C         -3.90284        -3.85266        -1.57590
C         -2.59767        -3.07385        -1.51939
C         -1.29470        -3.70588        -1.03053
C         -0.00809        -2.94487        -1.19559
C          1.29875        -3.69012        -1.19394
C          2.62880        -2.92833        -1.33784
C          3.88340        -3.54934        -0.77233
C          5.17939        -2.76979        -0.67692
C          6.30860        -3.36163         0.14988
C          7.58776        -2.60279         0.26086
C          8.87941        -3.34117         0.06342
C         10.03423        -2.64853        -0.09479
C         -8.98110        -4.94414         0.17111
C         -7.69968        -5.76487         0.05463
C         -6.50051        -5.15275        -0.60435
C         -5.15710        -5.79930        -0.36106
C         -3.90853        -5.24782        -0.96144
C         -2.56921        -5.90827        -0.66462
C         -1.26526        -5.21056        -0.90422
C          0.01879        -5.90354        -0.48846
C          1.28173        -5.07292        -0.60428
C          2.46938        -5.55844         0.15888
C          3.79038        -4.80397         0.05014
C          5.05489        -5.53987         0.36955
C          6.38954        -4.87193         0.27732
C          7.67820        -5.64008         0.18514
C          8.93045        -4.85837        -0.20866
C         -7.53301        -6.97608         0.90908
C         -6.30927        -7.44258         1.26560
C         -5.14242        -6.50828         0.99272
C         -3.67379        -7.69232         0.88992
C         -2.53052        -7.14919         0.17401
C         -1.28662        -8.06352         0.34961
C          0.02693        -7.31668         0.03996
C          1.19467        -7.74634         0.90957
C          2.46307        -6.93943         0.75600
C          3.72160        -7.74660         0.54864
C          5.02066        -7.03015         0.26595
C          6.32539        -7.81584         0.20389
C          7.60823        -7.10998         0.14654
C         -6.12606        -8.72310         1.94696
C         -4.93849        -9.24033         2.33514
C         -3.65857        -8.44196         2.22524
C         -2.32334        -9.15453         2.38566
C         -1.22368        -8.80095         1.69243
C          0.16697        -9.02637         2.22597
C          1.30905        -9.21156         1.24617
C          2.50036        -9.83671         1.40848
C          3.72057        -9.24916         0.77535
C          5.06494        -9.86330         0.92656
C          6.22585        -9.23089         0.63658
O         -3.56112        -8.27088        -0.32914
O          6.47649        -0.45418         0.75192
O          0.57754         7.41119        -0.03135
O         -6.52372         1.25182         0.02051
O          1.83326         4.49388         2.25090
O          7.49947         1.02852        -2.33576
O          2.28217        -5.78077         1.60048
O         -7.73136        -3.62416        -2.00274
O          1.24037         0.21394        -2.87443
O          7.14052        -5.21089         1.49536
O          3.51935        -3.74097        -2.15524
O         -1.98380         6.72844        -0.62295
O         -3.04430        -3.66166        -2.74981
O          6.11432         7.48790         2.14604
O          0.27830        -7.09621        -1.33750
O          4.71332         2.27477         0.86946
O          4.35476        -4.77659         1.39184
O         -8.12181        -0.62845         1.32098
O          5.68838        -2.44004        -2.01832
O          4.57604         4.60200         2.18097
O         -0.08456         2.75869        -1.93346
O         -1.47647         0.11648        -2.81398
O          3.44762        -8.68880        -0.53931
O          6.72147        -2.81353         1.42560
O         -7.36256        -6.07465        -1.33782
O          6.78239         3.97651        -1.74389
O          3.11500         1.66033        -2.57995
O         -3.09335         1.43991         0.29202
O         -4.72383         6.97694         1.68613
O         -1.64513        -9.02071        -0.60311
O          1.80655         2.09826         0.95520
O         -7.65268        -1.03946        -2.37249
O          1.41109        -4.85586        -2.04392
O         -4.82546        -5.69611         1.95015
O         -4.45754        -1.25546        -3.12643
O         -1.54289         7.43917         2.87714
O         -1.06011         4.78701         2.01472
O         -5.51610         6.07608        -1.90326
O         -5.57705         3.65643        -2.63843
O         -0.68258        -2.99188         0.10563
O         -4.67862        -6.33639        -1.60631
O          9.50637        -0.71136         1.33125
O          3.07206         7.03967         2.80357
O         -3.23847         4.55207        -1.88949
O         -1.88254        -5.97230        -1.95832
O          3.43472        -1.23711        -2.95395
O          5.54113        -7.43689        -1.02765
O         -8.20827         3.02142        -2.71674
O          7.08127         4.14818         1.76338
O         -4.36893         1.24892        -3.03126
O        -10.00128         1.06561        -1.28919
O          9.39865         1.84190         0.86326
O          0.65235        -7.60485         2.31641
O          9.19732        -5.07370        -1.60066
H          8.45897        -4.71964        -2.13797
O         -9.86371         5.84960        -0.00532
H        -10.72504         5.61492        -0.40440
O          0.93398         8.89100         3.27913
H          1.60847         8.26383         3.63018
O         -3.61019        -7.50858         3.31402
H         -4.23595        -6.75249         3.13653
O          4.27054         9.46097         2.96133
H          4.04098         8.74141         3.59114
O         10.29218         3.02986        -2.44197
H          9.42010         2.75498        -2.79445
O         -6.02221         8.64632        -1.30780
H         -5.94237         7.91118        -1.96704
O          5.33389         2.34999        -2.78033
H          6.17016         2.05353        -3.20736
O         -9.70748        -5.39119         1.30883
H        -10.65482        -5.18431         1.18563
O         -0.03538        -2.05310        -3.32625
H         -0.02507        -1.24120        -3.88334
O         -2.80128        -1.36396         0.11427
H         -2.02896        -1.75863         0.58490
O         -3.62037         9.73773        -0.43623
H         -4.45095         9.52545        -0.93699
O         -5.55918        -3.53723        -3.25072
H         -4.85686        -3.14097        -3.81344
O         -1.25416         2.38260         1.46275
H         -1.09626         3.01008         2.20913
H         12.28060        -1.02858        -0.42151
H         12.35363         1.38605        -0.69200
H         11.10269         3.73147        -0.67800
H          9.74563         5.80578        -0.19240
H          8.12840         7.78029        -0.31068
H          6.45992         9.59270        -0.49329
H          4.40795        10.71528         0.25377
H          2.36831        10.77647         1.89489
H          0.27648        10.50221         0.46229
H         -2.90196        10.58645         2.51465
H         -5.17009        10.54125         2.16903
H         -7.23801         9.47177         1.38084
H         -8.44038         7.69162         0.20426
H         -9.05299         5.36459        -1.86648
H        -10.49339         3.67059         0.66580
H        -11.57004         1.51862         1.51690
H        -11.28542        -0.84112         2.11461
H        -10.28330        -3.10084         1.61989
H         -9.59280        -5.13599        -0.75471
H         -8.44164        -7.54605         1.15829
H         -7.04200        -9.31380         2.10660
H         -4.90887       -10.22050         2.83287
H         -2.21206        -9.72671         3.32165
H          0.20606        -9.56620         3.19862
H          2.58961       -10.76555         1.99132
H          5.10595       -10.89624         1.30461
H          7.17519        -9.76389         0.79885
H          8.54223        -7.69177         0.14496
H          9.80391        -5.28257         0.34753
H         10.95844        -3.19296        -0.34374
