         430
 CSIRO Nanostructure Databank - Neutral Graphene Oxide Data Set
C         27.87043        27.43080        -0.16367
C         27.87055        28.87223         0.07755
C         26.66171        29.57105         0.30488
C         27.88670        31.66559         0.57516
C         26.67696        30.93050         0.56709
C         27.91697        33.09034         0.83480
C         26.74472        33.81116         1.15490
C         27.98159        35.90269         1.24173
C         26.78373        35.18404         1.36440
C         27.96724        37.40045         1.44158
C         26.80934        38.04538         0.72018
C         28.03707        40.15329         0.50394
C         26.84618        39.34286         0.35083
C         28.01464        41.55409         0.24542
C         26.78832        42.25240        -0.00632
C         27.97518        44.36683        -0.20185
C         26.76790        43.60686        -0.21592
C         27.96525        45.76745        -0.40831
C         30.26848        27.51762        -0.80819
C         28.98056        26.76962        -0.54501
C         30.35198        28.76232         0.07854
C         29.08238        29.57393         0.08083
C         30.34238        31.70707         0.24075
C         29.11131        30.98028         0.29898
C         30.37565        33.08582         0.50238
C         29.15590        33.79129         0.78995
C         30.44402        35.90650         0.97494
C         29.18343        35.20569         0.98515
C         30.46455        37.35443         1.07999
C         29.27509        38.07963         1.10878
C         30.47282        40.23927         0.82044
C         29.26475        39.50818         0.84330
C         30.47725        41.63261         0.53813
C         29.23377        42.29489         0.26388
C         30.43040        44.45235         0.02386
C         29.21550        43.70283         0.02915
C         30.39618        45.85978        -0.17890
C         29.14102        46.49125        -0.38924
C         32.73853        24.57207        -0.46785
C         31.57820        25.28865        -0.57832
C         32.75549        27.42483        -0.60076
C         31.56214        26.71898        -0.66851
C         32.78661        28.86997        -0.38760
C         31.60081        29.55521        -0.20915
C         32.86978        31.70133         0.06354
C         31.56861        31.04813        -0.33869
C         32.86663        33.07783         0.34510
C         31.63160        33.79994         0.52328
C         32.94421        35.89768         1.08170
C         31.64159        35.18934         0.79703
C         32.91410        37.37890         0.79640
C         31.72944        38.05766         0.96453
C         32.98708        40.23670         0.76870
C         31.74179        39.53830         1.25137
C         32.98463        41.73501         0.95163
C         31.68823        42.39138         0.52964
C         32.90508        44.52353         0.15564
C         31.67780        43.77069         0.24401
C         32.88025        45.93376        -0.06408
C         31.63126        46.61681        -0.18760
C         32.83329        48.72990        -0.42364
C         31.64625        48.02110        -0.34712
C         35.34720        23.12558        -0.15653
C         35.31967        24.50625        -0.46099
C         34.02860        25.18900        -0.76147
C         35.29062        27.44306        -0.59382
C         34.02414        26.73383        -0.83874
C         35.28233        28.79286        -0.31159
C         34.05852        29.55708        -0.27677
C         35.34986        31.65062         0.15088
C         34.08319        30.95417        -0.01886
C         35.33914        33.05878         0.29463
C         34.12874        33.78190         0.41972
C         35.35542        35.92802         0.33667
C         34.15908        35.18996         0.56726
C         35.30899        37.37215         0.22004
C         34.14595        38.07668         0.48597
C         35.35625        40.24898         0.09718
C         34.12553        39.54120         0.43001
C         35.33337        41.68234         0.07598
C         34.19228        42.40674         0.36756
C         35.35722        44.56702         0.04056
C         34.15765        43.84712         0.20227
C         35.36083        45.96897        -0.13976
C         34.10611        46.66606        -0.18514
C         35.33511        48.80006        -0.52142
C         34.08762        48.07561        -0.37153
C         35.35924        50.19492        -0.72937
C         37.78699        23.10926        -0.14215
C         36.54905        22.45021         0.00006
C         37.77457        24.51952        -0.40059
C         36.52872        25.21079        -0.53754
C         37.82115        27.35463        -0.50142
C         36.55513        26.67317        -0.93602
C         37.80982        28.85206        -0.47889
C         36.55352        29.43533         0.20421
C         37.83598        31.62885         0.15886
C         36.57726        30.94140         0.14925
C         37.85784        33.05973         0.23042
C         36.60921        33.78997         0.62389
C         37.81563        35.94045         0.06094
C         36.58173        35.24031         0.22030
C         37.81797        37.35538        -0.11101
C         36.50772        38.05511        -0.39502
C         37.78565        40.22933        -0.35848
C         36.55180        39.54941        -0.17288
C         37.82524        41.66426        -0.38004
C         36.52659        42.43139        -0.46735
C         37.86183        44.55336        -0.28563
C         36.64566        43.80285         0.18976
C         37.83941        45.95692        -0.39653
C         36.59358        46.67881        -0.31994
C         37.80478        48.80922        -0.70985
C         36.57910        48.09424        -0.50653
C         37.79134        50.20763        -0.90484
C         36.55407        50.87954        -0.90742
C         40.28186        20.30981         0.29741
C         39.08946        20.99879         0.28228
C         40.26653        23.04636        -0.31020
C         39.04887        22.38569        -0.03835
C         40.23874        24.45002        -0.75425
C         39.00142        25.22581        -0.58453
C         40.28978        27.39676        -0.62836
C         39.02346        26.65868        -0.56301
C         40.32611        28.75913        -0.40367
C         39.08763        29.42584         0.15080
C         40.29340        31.63103        -0.00643
C         39.07221        30.93333         0.04276
C         40.30295        33.06675         0.04811
C         39.05596        33.77347         0.13604
C         40.27349        35.92825        -0.00603
C         39.05004        35.22267         0.09377
C         40.27670        37.35363        -0.13302
C         39.02772        38.05945        -0.19382
C         40.24995        40.18290        -0.47974
C         39.03603        39.49999        -0.36932
C         40.25474        41.62437        -0.92060
C         39.01281        42.36472        -0.50692
C         40.27813        44.49667        -0.68347
C         39.05105        43.81249        -0.50113
C         40.28840        45.92091        -0.72758
C         39.06381        46.66045        -0.65482
C         40.26266        48.75006        -1.09513
C         39.05563        48.08278        -0.78405
C         40.38928        50.24271        -1.15132
C         39.06039        50.98197        -1.06830
C         40.22179        52.99899        -0.26667
C         39.06706        52.37585        -0.58402
C         42.74503        20.26165         0.09512
C         41.51297        20.97031         0.04053
C         42.77526        23.06110        -0.38967
C         41.51367        22.36625        -0.25128
C         42.81368        24.47891        -0.57169
C         41.55894        25.17416        -0.93483
C         42.84162        27.40236        -0.76238
C         41.53241        26.67475        -0.97139
C         42.79534        28.82295        -0.38827
C         41.56268        29.49926        -0.33298
C         42.76561        31.62915        -0.05634
C         41.54011        30.91731        -0.11408
C         42.76820        33.06163         0.05066
C         41.52339        33.77482         0.07468
C         42.72655        35.93476         0.06087
C         41.51923        35.22035         0.05764
C         42.73895        37.34369        -0.12861
C         41.50738        38.05250        -0.23971
C         42.70711        40.20523        -0.45177
C         41.50477        39.49209        -0.40252
C         42.73100        41.64689        -0.46594
C         41.52833        42.36759        -0.62811
C         42.77395        44.47888        -0.64851
C         41.54050        43.77744        -0.70491
C         42.86753        45.92679        -1.09027
C         41.50535        46.60501        -1.00583
C         43.21417        48.99821        -0.87665
C         41.37953        47.94147        -1.36705
C         42.88951        50.33856        -0.41090
C         41.62303        50.94893        -0.63635
C         42.58635        52.99877         0.33935
C         41.49340        52.30719        -0.23095
C         43.94197        20.92268        -0.05438
C         45.25231        23.03887        -0.24455
C         43.99169        22.33284        -0.25017
C         45.25699        24.46154        -0.22017
C         44.02451        25.19285        -0.40664
C         45.21563        27.34281        -0.10091
C         44.06079        26.63283        -0.44089
C         45.24446        28.77580        -0.06124
C         44.02026        29.50289        -0.16151
C         45.23962        31.63421        -0.01167
C         44.00803        30.92700        -0.06180
C         45.22654        33.06369         0.01902
C         43.99553        33.75645         0.09385
C         45.24648        35.92953        -0.03691
C         44.00228        35.22480         0.42468
C         45.21388        37.35605        -0.21088
C         43.99001        38.03581        -0.24367
C         45.22644        40.21030        -0.19497
C         43.99896        39.47826        -0.67261
C         45.17642        41.65070         0.22518
C         43.92871        42.36909        -0.22339
C         45.12767        44.49867         0.27962
C         43.93784        43.76906        -0.29724
C         45.15327        45.97644        -0.00027
C         44.04927        46.67746        -0.42328
C         45.05268        48.72762         0.72625
C         44.08064        48.13550        -0.26641
C         45.14261        50.23975         0.60792
C         43.93519        50.99748         0.29253
C         43.77993        52.35720         0.62806
C         47.69298        23.05947        -0.08981
C         46.50129        22.36739        -0.18230
C         47.72082        24.47529         0.01717
C         46.48406        25.15303        -0.01996
C         47.74522        27.36162         0.36067
C         46.43526        26.59811         0.24941
C         47.72607        28.81691         0.15219
C         46.48268        29.49297         0.06614
C         47.70694        31.64307         0.05729
C         46.47596        30.92484         0.02351
C         47.69742        33.07490        -0.01661
C         46.46420        33.78252        -0.04785
C         47.67435        35.94573        -0.42601
C         46.42356        35.21318        -0.18281
C         47.67211        37.41402        -0.31288
C         46.46328        38.09176        -0.32378
C         47.67652        40.29488        -0.30886
C         46.43269        39.54915        -0.23868
C         47.67388        41.68065        -0.28512
C         46.45640        42.40773        -0.07365
C         47.65175        44.54773         0.11440
C         46.44253        43.80167         0.01367
C         47.64991        45.93567         0.31704
C         46.40461        46.67343         0.32611
C         47.61274        48.75632         0.85480
C         46.39511        48.03371         0.59662
C         47.54302        50.13259         1.08889
C         46.33391        50.85783         0.92054
C         50.23399        24.55251        -0.04191
C         48.98528        25.21801         0.07341
C         50.21914        27.36665         0.08565
C         49.00314        26.62712         0.15460
C         50.20553        28.80908         0.13174
C         48.95510        29.51819         0.12787
C         50.18433        31.66691         0.16334
C         48.94895        30.94858         0.10847
C         50.16316        33.09955         0.14876
C         48.94264        33.76807         0.01413
C         50.12862        35.98847         0.34647
C         48.96804        35.22242        -0.24120
C         50.14164        37.44973        -0.05537
C         48.94379        38.09774        -0.31941
C         50.23618        40.27981        -0.62852
C         48.91579        39.54620        -0.60231
C         50.23138        41.73497        -0.41945
C         48.92485        42.49059        -0.59024
C         50.18572        44.56262         0.08760
C         48.92667        43.75164         0.27909
C         50.15298        45.98631         0.30045
C         48.89900        46.65605         0.48175
C         50.11238        48.73813         0.88838
C         48.87751        48.04887         0.75818
C         51.42401        25.25257        -0.06691
C         52.69943        27.40922         0.00363
C         51.45734        26.66934        -0.00603
C         52.67752        28.82381         0.10138
C         51.42550        29.53359         0.14043
C         52.65584        31.70821         0.25819
C         51.42168        30.96735         0.18300
C         52.65803        33.11331         0.25593
C         51.41511        33.85397         0.16030
C         52.70504        36.01841        -0.02796
C         51.42248        35.23794         0.12264
C         52.57262        37.40651         0.62251
C         51.39210        38.17765         0.02968
C         52.75047        40.25468        -0.47472
C         51.45030        39.51931        -0.27022
C         52.69487        41.75876        -0.29995
C         51.42342        42.44428        -0.30554
C         52.59934        44.67342        -0.37712
C         51.36874        43.89730        -0.17278
C         52.62819        46.08434         0.02737
C         51.37640        46.72478         0.34399
C         51.31785        48.10334         0.68171
C         55.14112        27.42982         0.03384
C         53.95950        26.73849        -0.05359
C         55.14569        28.84877         0.18260
C         53.90777        29.55448         0.18674
C         55.13124        31.65566         0.51323
C         53.91190        30.97767         0.32121
C         55.14916        33.12616         0.87679
C         53.87712        33.86790         0.49517
C         55.16324        35.96755         0.92417
C         53.89549        35.23809         0.48267
C         55.16327        37.45971         0.63498
C         53.88101        38.19044         0.63416
C         55.21963        40.32635         0.07844
C         53.91576        39.64991         0.27074
C         55.18304        41.76384        -0.12655
C         53.91777        42.43707        -0.27123
C         55.15872        44.65694        -0.14470
C         53.93437        43.90544        -0.44555
C         55.08917        46.05519        -0.02453
C         53.86936        46.73839         0.07021
C         56.35700        29.55915         0.35559
C         56.34030        30.92958         0.55035
C         56.34014        33.88080         0.32558
C         56.34707        35.21783         0.34002
C         56.32723        38.17220         0.50882
C         56.36595        39.58300         0.26771
C         56.36725        42.53604        -0.04535
C         56.36050        43.92600        -0.00625
O         39.76645        50.81274        -2.34962
O         42.28319        27.18430        -2.11823
O         53.73071        39.25951         1.66626
O         49.55283        39.89962        -1.89682
O         34.03959        25.89687        -2.05562
O         48.51273        35.52693        -1.58886
O         53.25576        44.37358        -1.65503
O         42.48216        48.55030        -1.98594
O         46.99737        26.95038         1.56541
O         40.87321        24.60280        -2.09473
O         40.18586        41.57653        -2.40284
H         39.30426        41.21843        -2.64100
O         36.83719        43.55850         1.61982
H         36.96021        44.42656         2.05799
O         52.93348        36.27324        -1.44824
H         52.89240        35.41638        -1.92257
O         36.56221        29.06673         1.62999
H         35.83467        29.56154         2.06371
O         55.26496        33.15524         2.34400
H         54.47947        32.69452         2.70834
O         44.13895        39.44525        -2.15022
H         44.96360        38.95359        -2.35564
O         39.16950        29.10777         1.56840
H         38.27588        29.24714         1.96792
O         36.28134        42.65566        -1.88595
H         36.05616        41.79304        -2.29270
O         48.85293        42.88802        -1.98177
H         48.92421        42.06830        -2.51931
O         44.94586        44.41065         1.73781
H         44.92105        43.44601         1.96798
O         36.30844        37.89787        -1.85676
H         37.15714        38.12624        -2.29264
O         33.09843        35.82622         2.56076
H         32.42058        36.42242         2.94902
O         55.23713        35.88279         2.37451
H         55.30844        34.92074         2.60720
O         45.09242        41.62265         1.71511
H         45.91991        41.20908         2.04442
O         36.64823        33.81996         2.11797
H         35.85109        34.31541         2.41063
O         44.55316        48.45449         2.08042
H         45.26445        48.69522         2.71033
O         27.74232        37.62122         2.88006
H         27.81590        38.58629         3.03923
O         52.25206        37.16411         2.01976
H         52.58347        37.94492         2.52275
O         36.60002        26.71374        -2.41786
H         35.74028        26.32174        -2.72031
O         48.92900        43.27661         1.66321
H         48.85242        44.05982         2.24793
O         30.22637        27.97062        -2.18777
H         30.21470        27.18179        -2.76840
O         53.07839        40.02978        -1.88619
H         52.31688        40.33361        -2.42518
O         33.07270        41.97331         2.42770
H         34.00818        41.82111         2.68521
O         44.05942        35.28628         1.90803
H         43.26600        34.81855         2.24692
O         43.22441        45.87685        -2.50641
H         43.18474        46.80336        -2.83803
O         31.75496        39.62234         2.72552
H         32.06535        40.53965         2.94365
O         30.50101        28.26011         1.44753
H         30.46057        29.02747         2.05590
O         37.76399        29.28771        -1.86363
H         37.37714        28.55306        -2.39857
O         49.87038        35.95133         1.78724
H         50.66750        36.35545         2.21981
O         31.45132        31.29906        -1.80072
H         32.10868        30.72454        -2.24890
H         26.91517        26.89465        -0.05273
H         25.70893        29.02243         0.29446
H         25.72348        31.43846         0.76378
H         25.78130        33.29263         1.24591
H         25.85629        35.70804         1.63299
H         25.88833        37.46500         0.56665
H         25.95689        39.78733        -0.11760
H         25.83868        41.70135        -0.01063
H         25.81484        44.12570        -0.39405
H         27.00693        46.27732        -0.58332
H         28.91542        25.69769        -0.78606
H         29.09241        47.57593        -0.55194
H         32.69398        23.51684        -0.16513
H         30.62488        24.76015        -0.43527
H         32.78203        49.81948        -0.54842
H         30.70337        48.57916        -0.41739
H         34.40869        22.56159        -0.07403
H         34.42278        50.76659        -0.76439
H         36.51508        21.37274         0.20733
H         36.51518        51.96203        -1.08791
H         40.29355        19.23459         0.52732
H         38.16150        20.45553         0.50376
H         40.20444        54.04351         0.07864
H         38.11463        52.91267        -0.47484
H         42.73051        19.17932         0.28797
H         42.45321        54.05472         0.61619
H         44.87525        20.34953         0.02290
H         44.58471        52.90322         1.13850
H         48.62837        22.48504        -0.06695
H         46.53805        21.27078        -0.22555
H         48.45318        50.70926         1.29815
H         46.39222        51.95603         0.95162
H         50.27225        23.45729        -0.10730
H         50.12048        49.80922         1.12915
H         52.35942        24.68261        -0.14081
H         52.24379        48.68802         0.76094
H         56.10092        26.89412         0.00685
H         53.99323        25.64586        -0.15469
H         56.02362        46.62147         0.10139
H         53.90717        47.81873         0.26716
H         57.30813        29.00815         0.37050
H         57.28485        31.45637         0.74324
H         57.19298        33.32263        -0.08771
H         57.21232        35.76833        -0.05768
H         57.29487        37.65532         0.57929
H         57.35608        40.05291         0.18570
H         57.33154        42.02091         0.06334
H         57.30428        44.47032         0.14279
