         349
 CSIRO Nanostructure Databank - Neutral Graphene Oxide Data Set
C          1.81366         3.67876        -1.70841
C          0.54197         4.07535        -1.29701
C          1.43471         6.19591        -0.50116
C          0.34949         5.32861        -0.71349
C          1.25060         7.57308        -0.00731
C         -0.06756         8.19555         0.09375
C          0.97288        10.40329         0.28806
C         -0.21708         9.51622         0.34440
C          0.93429        11.89771         0.39692
C         -0.29594        12.60245         0.81826
C          0.72633        14.74356         0.27426
C         -0.36040        13.95567         0.81682
C          0.50444        15.98917        -0.29313
C         -0.47463        17.02453        -0.07276
C          1.00915        19.09849        -0.48561
C         -0.23584        18.36731        -0.28746
C          0.98499        20.55985        -0.58281
C         -0.15039        21.23653        -0.97917
C          1.00425        23.37841        -1.14676
C         -0.12212        22.61776        -1.32972
C          1.20784        25.74268        -1.00948
C          0.08885        26.60525        -1.05690
C          1.28579        28.23150         0.27021
C          0.10317        27.80725        -0.37025
C          1.37839        29.55724         0.81191
C          4.28090         4.11333        -2.00535
C          2.91509         4.52456        -1.50151
C          3.93702         6.66174        -0.61525
C          2.73529         5.76855        -0.87837
C          3.64024         7.53737         0.61639
C          2.35481         8.28897         0.37615
C          3.51437        10.57210         0.78291
C          2.26415         9.73200         0.65392
C          3.43242        12.02672         0.50096
C          2.22422        12.65676         0.44409
C          3.40648        14.91543         0.19953
C          2.11126        14.14662         0.36443
C          3.47927        16.37516        -0.04452
C          2.43766        17.07464        -0.55502
C          3.51388        19.22903        -0.31352
C          2.26914        18.49687        -0.42732
C          3.53289        20.66292        -0.33894
C          2.22087        21.33925        -0.29430
C          3.50977        23.64334        -0.51406
C          2.20391        22.86748        -0.47421
C          3.49844        25.09390        -0.04625
C          2.36701        26.04788        -0.28911
C          3.67464        27.93452         0.68873
C          2.43972        27.37849         0.27683
C          3.78907        29.30687         1.09623
C          2.57628        30.08162         1.20413
C          6.65953         4.07000        -1.18441
C          5.40251         4.67567        -1.16098
C          6.28460         6.36556         0.34716
C          5.22081         5.86509        -0.43276
C          6.16041         7.74139         0.91942
C          4.83795         8.42835         0.96543
C          6.01774        10.62772         0.78428
C          4.83987         9.90432         0.78197
C          6.00676        12.08059         0.61497
C          4.72726        12.68994         0.06617
C          5.87859        14.88882         0.05046
C          4.71361        14.19394         0.12967
C          5.85812        16.31513        -0.47618
C          4.76315        17.09698         0.27121
C          5.94937        19.20656        -0.63933
C          4.70518        18.52655        -0.17830
C          5.99321        20.66270        -0.24546
C          4.75890        21.36120        -0.27111
C          6.02642        23.47912         0.30019
C          4.78010        22.85851        -0.33272
C          6.11734        24.97465         0.10219
C          4.84966        25.71618         0.26906
C          6.22520        27.85618         0.54394
C          4.90417        27.20452         0.33305
C          6.28427        29.08580         1.42165
C          5.02798        29.89741         1.35376
C          9.05570         3.96840        -0.73690
C          7.75123         4.56434        -0.43923
C          8.59016         6.35905         1.24046
C          7.53779         5.70125         0.39907
C          8.54438         7.86478         1.38776
C          7.37128         8.57996         0.90518
C          8.51873        10.72844         1.14200
C          7.32005         9.97576         0.95202
C          8.44344        12.23373         1.28182
C          7.15116        12.81395         0.73639
C          8.38553        14.79153        -0.18794
C          7.16568        14.31742         0.60078
C          8.38880        16.19860        -0.72036
C          7.18511        17.03894        -0.46564
C          8.45772        19.15011        -0.71752
C          7.20864        18.39441        -0.46331
C          8.55680        20.55080        -0.12973
C          7.25276        21.34857        -0.22026
C          8.50617        23.47370        -0.41786
C          7.28173        22.72357        -0.08453
C          8.59037        24.90795        -0.03925
C          7.34766        25.63321         0.14247
C          8.67005        27.67489         0.62244
C          7.44984        27.03590         0.46533
C          8.72736        29.11266         0.91253
C          7.57183        29.82408         1.20443
C         11.51818         3.73443        -0.09366
C         10.12043         3.97718         0.12020
C         11.13507         6.41662         1.38479
C          9.93070         5.75194         1.38840
C         11.09875         7.85775         1.75146
C          9.79604         8.62467         1.67454
C         10.98715        10.79217         1.32308
C          9.78421        10.09030         1.37775
C         11.01520        12.30948         1.25405
C          9.70829        12.91611         0.76176
C         10.92185        14.85795        -0.16037
C          9.68347        14.12598         0.12762
C         10.93416        16.17888        -0.59752
C          9.70729        16.85952        -1.17309
C         10.99735        19.09718        -0.78728
C          9.71035        18.38857        -0.99632
C         10.96329        20.56275        -0.85753
C          9.79903        21.25779        -0.66233
C         11.04939        23.54391        -0.94243
C          9.74358        22.73526        -0.83954
C         11.06699        24.67305         0.10836
C          9.81401        25.52997         0.10163
C         11.11469        27.62073         0.40993
C          9.89425        26.94327         0.40775
C         11.19246        29.03326         0.70755
C         10.00519        29.74768         0.92514
C         13.82593         3.81425         0.46601
C         12.52199         4.41117         0.59623
C         13.61770         6.45691         1.46187
C         12.43005         5.74718         1.22701
C         13.66240         7.90693         1.62488
C         12.37682         8.63686         1.79801
C         13.56590        10.89844         1.41216
C         12.28231        10.14436         1.64979
C         13.51441        12.18693         0.66373
C         12.24533        12.86231         0.54653
C         13.35083        14.73989        -0.64075
C         12.16871        14.13806        -0.00137
C         13.38238        16.21404        -0.74050
C         12.19194        16.91318        -0.67146
C         13.44028        19.12381        -0.64824
C         12.16470        18.38160        -0.67224
C         13.47927        20.53517        -1.03561
C         12.22056        21.29786        -1.32550
C         13.50338        23.32689        -0.52172
C         12.30248        22.70679        -0.79376
C         13.54101        24.76038        -0.20929
C         12.35628        25.44750        -0.02865
C         13.68279        27.62130         0.19168
C         12.33853        26.90605         0.01682
C         13.68394        28.99631         0.74745
C         12.46084        29.67135         0.86938
C         16.21561         3.69094         0.85960
C         14.96090         4.36904         0.98257
C         16.19273         6.47026         1.51097
C         14.90874         5.69090         1.70086
C         16.20094         7.95631         1.81308
C         14.84497         8.62691         1.61559
C         16.16165        10.80063         1.11913
C         14.85605        10.12068         1.53485
C         15.98453        12.07407         0.31854
C         14.70505        12.72553         0.15340
C         15.95380        14.65982        -1.07671
C         14.65330        13.96369        -0.65851
C         15.93036        16.16761        -0.95085
C         14.71579        16.85590        -0.40221
C         15.86477        19.01334        -1.40435
C         14.73337        18.37060        -0.61053
C         15.95182        20.48888        -1.07121
C         14.71631        21.20889        -0.93217
C         16.00066        23.27256        -0.50341
C         14.75590        22.61485        -0.67341
C         16.05058        24.65455        -0.09639
C         14.81912        25.41597         0.00899
C         16.06669        27.38013         0.89796
C         14.85512        26.76556         0.35616
C         16.13510        28.85307         1.04440
C         14.92038        29.58939         1.06528
C         18.66050         3.66088         0.87207
C         17.40091         4.35394         1.07378
C         18.67759         6.48766         1.45191
C         17.36966         5.78959         1.35111
C         18.71072         7.99957         1.22565
C         17.33196         8.61049         1.04604
C         18.34142        10.51538        -0.11965
C         17.23659         9.89241         0.55698
C         18.36956        11.91083        -0.32744
C         17.15764        12.67125        -0.12402
C         18.42571        14.75655        -0.85986
C         17.16346        14.16230        -0.28026
C         18.41934        16.13114        -1.14846
C         17.14711        16.86716        -1.07184
C         18.38414        18.95179        -1.61524
C         17.15770        18.26486        -1.23514
C         18.39786        20.49853        -1.50381
C         17.16152        21.17320        -1.05717
C         18.48731        23.22756        -0.61801
C         17.21972        22.56266        -0.71872
C         18.52513        24.59535        -0.20167
C         17.29554        25.26489         0.10889
C         18.62227        27.35578         0.67958
C         17.36767        26.59508         0.73174
C         18.61413        28.74123         1.00618
C         17.38090        29.45083         1.20767
C         19.85835         4.28532         0.90971
C         21.13419         6.47697         0.73669
C         19.94659         5.72624         1.22791
C         21.00227         7.68869         0.17348
C         19.66537         8.33980         0.09232
C         20.59909        10.36444        -1.21235
C         19.46969         9.68598        -0.57740
C         20.63833        11.72427        -1.28421
C         19.54402        12.54506        -0.85093
C         20.79548        14.65270        -1.38763
C         19.59733        13.97741        -1.02039
C         20.82253        16.02257        -1.55007
C         19.64196        16.80357        -1.44480
C         20.83448        18.99522        -1.70198
C         19.66753        18.24030        -1.59412
C         20.84659        20.39968        -1.55919
C         19.69457        21.14975        -1.32036
C         20.92681        23.22474        -0.70505
C         19.71312        22.53095        -0.87817
C         20.95439        24.56085        -0.32105
C         19.77246        25.27897        -0.06702
C         21.01716        27.43756         0.31167
C         19.81574        26.69740         0.30581
C         21.02500        28.78602         0.67988
C         19.84481        29.43988         1.01774
O          2.01174        22.27198         0.83985
O          4.37725        23.37847        -1.65403
O         18.21517        19.82739        -2.79860
O         16.66668        26.66085         2.02551
O         19.49362         6.06666         2.59486
O          1.46110        16.36101        -1.24891
O          1.07718        24.59829        -1.81117
O         10.32546         8.18051         2.95575
O          8.12022         6.95815         2.48171
O          0.91441        11.21540        -0.94042
O          9.87326         4.36480         1.45315
O          3.97733        25.18518         1.34526
O          2.82047        14.69707         1.55952
O         14.31740        19.02260         0.61138
O         14.32655        10.90974         2.67440
O         12.35361         9.51136         2.96928
O         19.06580         8.39353        -1.22248
O          8.81110        23.19900        -1.87659
O          2.74069        10.15420         1.97758
O         13.75594        13.92818        -1.81764
O          8.93894        19.03356        -2.08727
O          5.58610        27.92141        -0.77213
O          8.07218        15.04081        -1.58849
O         13.04137        27.53181        -1.11787
O          5.45506         7.95672         2.21295
O         15.48060        18.88534        -2.80843
H         16.23271        19.24431        -3.33474
O          6.34065        28.52418         2.79748
H          6.42375        29.27750         3.41978
O          4.39342         2.69269        -2.11176
H          4.30208         2.31208        -1.21438
O         11.07561        23.98261         1.39550
H         11.15347        24.65406         2.10526
O          5.89072        23.27741         1.74307
H          5.11935        23.82363         2.03595
O          5.08806        17.09823         1.67727
H          5.43793        16.21044         1.92238
O          8.76617        20.33665         1.29775
H          8.61717        21.18344         1.76969
O          4.77192        12.39748        -1.37944
H          5.51487        12.90716        -1.76862
O         12.11057        21.43917        -2.78441
H         11.72740        22.33074        -2.96959
O          5.82418        19.25329        -2.12107
H          5.06984        19.84145        -2.34172
O         11.13825        12.73771         2.66500
H         11.83047        12.18141         3.08756
O          4.13402         7.55889        -1.74165
H          4.10191         7.03301        -2.56751
O          5.45029        16.23169        -1.86365
H          6.21332        15.86670        -2.36539
O         14.88851         5.39002         3.13864
H         15.12161         6.21850         3.61393
O         16.50302         8.11381         3.24108
H         16.52448         9.08217         3.41828
O         16.79158        11.23685         2.37485
H         16.06099        11.61274         2.92326
O         17.02177        14.69585         1.06599
H         17.69084        14.26608         1.63877
O         14.80927        16.60864         1.03895
H         14.53232        17.45090         1.48097
O          7.27075        14.88899         1.94223
H          7.62023        14.17438         2.53930
O         19.26645         8.62829         2.40460
H         18.84562         8.20652         3.18605
O          8.41284        12.53685         2.72511
H          9.34850        12.49183         3.05296
O          3.39836         6.62596         1.70649
H          4.03944         6.85555         2.42363
O         16.21296        14.31363        -2.45542
H         15.33982        14.29399        -2.91179
O         11.11962        24.10034        -2.27167
H         10.18760        24.15933        -2.60214
O          9.83662        16.63560        -2.59679
H          9.30956        17.33716        -3.04442
H          1.96930         2.70306        -2.18977
H         -0.31670         3.40669        -1.44976
H         -0.66425         5.62804        -0.41458
H         -0.95890         7.55718         0.01277
H         -1.21936         9.96334         0.41123
H         -1.16596        12.00739         1.13028
H         -1.29891        14.46522         1.08373
H         -1.46546        16.74360         0.31768
H         -1.10771        19.01554        -0.10346
H         -1.07997        20.68480        -1.17304
H         -0.98751        23.05718        -1.84214
H         -0.79597        26.28880        -1.62379
H         -0.77709        28.46516        -0.37907
H          0.46525        30.16914         0.84895
H          4.39873         4.51655        -3.05306
H          2.64043        31.11602         1.57116
H          6.80422         3.18259        -1.81775
H          5.06324        30.95524         1.65786
H          9.18390         3.54497        -1.74421
H          7.62800        30.90375         1.41099
H         11.82259         2.92739        -0.77914
H         10.05958        30.82126         1.15920
H         13.89138         2.83992        -0.04228
H         12.46966        30.72252         1.19560
H         16.22126         2.64303         0.52355
H         14.94956        30.65490         1.33940
H         18.60842         2.58623         0.64112
H         17.43347        30.53707         1.37691
H         20.78693         3.73537         0.69687
H         22.11859         5.98657         0.78828
H         21.87936         8.20848        -0.24007
H         21.41895         9.76166        -1.62553
H         21.51121        12.19928        -1.75121
H         21.73269        14.09236        -1.50221
H         21.77770        16.50869        -1.79026
H         21.80678        18.48843        -1.77435
H         21.83017        20.88830        -1.52694
H         21.88183        22.71467        -0.88752
H         21.93142        25.04963        -0.21196
H         21.96606        26.96352         0.02837
H         21.97533        29.33785         0.68517
H         19.85731        30.50774         1.27812
