         332
 CSIRO Nanostructure Databank - Neutral Graphene Oxide Data Set
C         30.45133        57.19014        -1.50180
C         30.46241        58.66380        -1.16944
C         29.27301        59.37882        -1.23830
C         30.40126        61.43820        -0.64394
C         29.24249        60.76521        -0.97886
C         32.99717        52.95873        -1.04372
C         32.89557        54.30903        -0.83258
C         31.72325        55.07837        -1.16956
C         32.93429        57.18849        -0.83026
C         31.70503        56.44913        -1.09992
C         32.92181        58.64386        -0.77316
C         31.67107        59.34157        -0.84116
C         32.83505        61.41321        -0.18770
C         31.63749        60.74211        -0.56530
C         35.52616        48.73007        -1.01056
C         35.46313        50.11016        -0.74306
C         34.28163        50.85128        -0.99881
C         35.37415        52.92668        -0.28512
C         34.20881        52.22492        -0.75435
C         35.32915        54.32893        -0.11217
C         34.00211        55.03974        -0.12050
C         35.38808        57.14959        -0.53191
C         34.08733        56.48419        -0.53978
C         35.39426        58.67512        -0.50453
C         34.09356        59.35860        -0.45748
C         35.28417        61.50383         0.30382
C         34.04482        60.74181        -0.12263
C         37.95403        44.46188        -0.82600
C         37.89502        45.82929        -0.58274
C         36.74607        46.60095        -0.94811
C         37.71574        48.59238         0.20972
C         36.66054        47.95960        -0.66955
C         37.81500        50.08744         0.06031
C         36.64410        50.80466        -0.26431
C         37.77665        52.88749         0.36998
C         36.61389        52.21647        -0.09821
C         37.64908        54.32431         0.84832
C         36.49798        55.04929         0.20532
C         37.80475        57.14113         0.06034
C         36.58150        56.44388        -0.03209
C         37.81939        58.59456         0.09604
C         36.60266        59.33061         0.02318
C         37.72895        61.30677         0.84440
C         36.55677        60.68551         0.38910
C         40.35096        40.12585        -0.84854
C         39.83981        41.28464        -0.29044
C         38.99787        42.28939        -0.83178
C         40.22287        44.30886         0.15282
C         39.05730        43.64571        -0.43158
C         40.24984        45.72898         0.20419
C         39.06457        46.49889        -0.04736
C         40.22430        48.58682         0.52935
C         39.04239        47.88213         0.16971
C         40.20579        50.00781         0.71344
C         38.98304        50.76118         0.46712
C         40.05630        52.80825         1.47642
C         38.95823        52.18471         0.62325
C         40.11988        54.41202         1.43485
C         38.95093        55.07548         0.75206
C         40.32069        57.08829         0.15692
C         39.01493        56.39142         0.34162
C         40.32099        58.63167         0.18789
C         39.01777        59.29770         0.40812
C         40.17596        61.38782         1.35692
C         38.96345        60.63642         0.83865
C         42.89404        36.03132        -1.14809
C         42.81994        37.31471        -0.56924
C         41.61733        38.08356        -0.72179
C         42.52991        39.97129         0.59987
C         41.46703        39.38948        -0.29346
C         42.65279        41.45827         0.74209
C         41.48295        42.23066         0.75023
C         42.68480        44.31136         0.62889
C         41.44116        43.62133         0.50495
C         42.69130        45.73220         0.66159
C         41.45804        46.43438         0.53010
C         42.66226        48.54554         0.94165
C         41.44413        47.85249         0.66173
C         42.63895        49.96901         1.05421
C         41.41229        50.69013         0.99414
C         42.58917        52.82486         1.20743
C         41.40378        52.13795         1.20079
C         42.62001        54.27921         1.21930
C         41.42902        54.99582         0.99765
C         42.83623        56.79419         0.26888
C         41.53471        56.29687         0.49150
C         42.81616        58.92259         0.23438
C         41.53802        59.42657         0.51801
C         42.70307        61.36503         1.41863
C         41.49465        60.69335         1.13073
C         45.41769        33.35387        -1.83948
C         44.19563        34.02041        -1.76305
C         45.30223        35.94890        -0.70647
C         44.11565        35.32290        -1.19835
C         45.23780        37.24582        -0.09912
C         43.97093        37.89833         0.02284
C         45.10193        39.90442         1.15056
C         43.83537        39.17353         0.74872
C         45.13069        41.41145         1.08873
C         43.88283        42.14912         0.79295
C         45.15267        44.27026         0.89963
C         43.90241        43.57037         0.79636
C         45.16838        45.70039         0.98951
C         43.91569        46.43661         0.90267
C         45.13156        48.54896         1.52502
C         43.88934        47.82974         1.05129
C         45.10739        50.02485         1.20522
C         43.89447        50.67403         1.11545
C         45.09064        52.81573         1.43099
C         43.88433        52.14786         0.80910
C         44.93455        54.12101         1.82178
C         43.85170        54.96353         1.35653
C         45.22053        57.16991         0.94557
C         43.99919        56.32316         0.93025
C         45.21347        58.59695         0.81326
C         44.00253        59.42292         0.78966
C         45.25228        61.47807         1.56465
C         43.95744        60.74718         1.28085
C         46.58502        33.95647        -1.37368
C         47.72844        35.89887        -0.35646
C         46.55041        35.25966        -0.80503
C         47.68018        37.19518         0.19341
C         46.43060        37.85840         0.35410
C         47.64875        39.99026         0.85188
C         46.42910        39.13385         1.16673
C         47.64928        41.39060         0.84573
C         46.40844        42.14079         0.92148
C         47.63865        44.30007         0.52036
C         46.38239        43.52498         0.84624
C         47.67974        45.64277         1.24702
C         46.38550        46.40855         1.10823
C         47.60846        48.53712         1.00482
C         46.41593        47.83080         1.16853
C         47.56116        50.00882         0.65609
C         46.35663        50.76563         1.15207
C         47.70920        52.89809         1.46388
C         46.37461        52.13572         1.33978
C         47.68231        54.35327         0.99272
C         46.75004        55.20131         1.50014
C         47.69375        57.23378         0.69293
C         46.51972        56.55922         1.04557
C         47.67933        58.65705         0.62644
C         46.43960        59.33425         0.82795
C         47.66515        61.44159         0.83886
C         46.47245        60.75794         1.01161
C         48.89109        37.88890         0.51459
C         50.11805        40.00169         0.74454
C         48.88780        39.27261         0.73033
C         50.13409        41.37777         0.76076
C         48.90153        42.11268         0.76174
C         50.13503        44.25206         0.69688
C         48.92154        43.52633         0.72526
C         50.12287        45.70144         0.65333
C         48.90547        46.42459         0.83341
C         50.05520        48.57974         0.54636
C         48.86682        47.84485         0.79167
C         50.06812        50.01310         0.58386
C         48.86684        50.73807         0.82429
C         50.08763        52.82699         0.60017
C         48.88045        52.13672         0.87208
C         50.07973        54.23971         0.16344
C         48.79150        55.00122         0.24852
C         50.08413        57.14200         0.14228
C         48.90052        56.48851         0.36648
C         50.18335        58.58835         0.56185
C         48.88954        59.35407         0.48161
C         50.12686        61.46264         0.35260
C         48.90058        60.77069         0.53659
C         51.47459        42.07330         0.73939
C         52.57276        44.28178         0.46206
C         51.39911        43.57687         0.63315
C         52.58149        45.71168         0.35460
C         51.33435        46.39351         0.45496
C         52.58281        48.54848         0.72847
C         51.32958        47.86414         0.16199
C         52.55942        49.99433         0.28190
C         51.29543        50.73052         0.49624
C         52.58113        52.91444         0.73101
C         51.30701        52.12816         0.50953
C         52.53985        54.34577         0.24354
C         51.35148        54.98171         0.01450
C         52.59937        57.15401        -0.58946
C         51.23359        56.40383        -0.53405
C         52.53207        58.64981        -0.27347
C         51.35735        59.33942         0.00430
C         52.54124        61.47848        -0.22028
C         51.34263        60.77855         0.06388
C         53.78802        46.42453         0.16553
C         55.03948        48.54931         0.22052
C         53.85977        47.84295         0.30287
C         55.10664        50.00685         0.60425
C         53.83911        50.73705         0.20084
C         55.01602        52.89817         0.17360
C         53.84389        52.21048         0.31193
C         55.01092        54.36086         0.19376
C         53.81782        55.04519         0.17903
C         55.00873        57.25968        -0.14034
C         53.72941        56.55337         0.26926
C         54.99886        58.61835        -0.31792
C         53.76059        59.35937        -0.30809
C         54.98300        61.46669        -0.70098
C         53.76243        60.79083        -0.37896
C         56.30255        50.76823         0.09614
C         57.41368        52.88450        -0.46062
C         56.26458        52.14896        -0.06606
C         57.47369        54.30098        -0.42640
C         56.33124        55.10947         0.17228
C         57.46061        57.20912        -0.70971
C         56.17084        56.42978        -0.60426
C         57.46812        58.57038        -0.81310
C         56.29817        59.37690        -0.29802
C         57.39355        61.42278        -1.20491
C         56.20451        60.78902        -0.81869
C         58.59372        54.97463        -0.87052
C         59.85963        57.06298        -1.53151
C         58.76921        56.45104        -0.64314
C         59.84739        58.57960        -1.52689
C         58.67287        59.28975        -1.19395
C         59.79997        61.38979        -1.76751
C         58.62337        60.71044        -1.35807
C         60.98379        59.28239        -1.94051
C         60.96362        60.68390        -2.03687
O         39.59679        52.46145         2.76877
O         44.97877        40.67212         2.38016
O         53.18860        50.24407        -1.02203
O         42.80548        39.17833         1.78833
O         40.37156        57.88054        -1.06566
O         45.94263        54.74935         2.55953
O         40.29022        41.57307         1.01926
O         49.16694        54.39843        -1.03548
O         42.96611        57.84406        -0.64158
O         35.63584        57.94153        -1.74860
O         50.79691        56.27525        -1.92232
H         50.07252        55.59177        -1.93471
O         46.62661        38.69194         2.54573
H         46.24461        39.39733         3.11874
O         55.80757        56.05482        -1.97503
H         54.88662        56.37909        -2.15204
O         53.11413        57.05925        -1.94374
H         52.34088        56.84702        -2.52493
O         40.02576        54.85064         2.82074
H         39.87357        54.00133         3.33922
O         59.22219        56.60191         0.74171
H         58.46884        56.31466         1.31395
O         45.08448        48.47124         3.00026
H         44.24534        48.88956         3.28992
O         33.60043        55.06450         1.30577
H         34.41769        55.06960         1.85024
O         40.01893        61.61330         2.76692
H         39.12067        61.96972         2.92345
O         52.51919        48.52252         2.16908
H         53.36731        48.89892         2.50377
O         48.00321        52.92608         2.89731
H         47.28039        53.44736         3.31905
O         45.43142        61.65006         2.98509
H         45.45018        60.76273         3.39876
O         47.36218        49.99776        -0.81837
H         48.17139        49.61247        -1.21936
O         51.44058        47.98561        -1.29390
H         50.72627        47.44935        -1.69711
O         56.59176        59.53671         1.14016
H         57.44803        60.01082         1.20918
O         52.69963        52.99226         2.20355
H         51.87878        53.40647         2.54774
O         37.22379        48.39213         1.58731
H         37.18019        47.42487         1.74491
O         43.97263        52.27648        -0.64921
H         44.77636        51.79076        -0.93504
O         35.49725        62.61770        -0.58363
H         35.65167        62.26269        -1.48319
O         53.45716        56.87947         1.65300
H         54.26379        56.68366         2.17478
O         55.12239        50.03515         2.08687
H         55.11958        50.97848         2.36020
O         56.69208        55.46194         1.54260
H         56.79660        54.62784         2.04763
O         50.47608        58.51820         2.01875
H         50.60905        59.43940         2.33062
O         47.56756        44.61464        -0.90593
H         47.56640        43.76907        -1.40130
O         52.22153        41.71065         1.91811
H         51.72916        42.03513         2.70006
O         30.25442        57.03322        -2.92642
H         31.01078        57.45674        -3.38247
O         59.69324        56.60923        -2.88427
H         58.80370        56.88203        -3.19141
O         37.31532        54.18738         2.27307
H         37.99586        53.56431         2.65667
O         47.82951        45.34352         2.66754
H         47.74379        46.18467         3.16437
H         29.56352        56.70855        -1.01539
H         28.34268        58.85582        -1.50201
H         30.37962        62.51724        -0.43401
H         28.28777        61.30594        -1.04015
H         32.15205        52.40716        -1.48419
H         30.82558        54.54209        -1.51382
H         32.79629        62.48673         0.04801
H         34.67168        48.23795        -1.50110
H         33.39438        50.32326        -1.37959
H         35.08892        61.95372         1.31572
H         37.09045        43.96992        -1.29868
H         35.91949        46.09848        -1.47425
H         37.68797        62.36264         1.15287
H         39.91623        39.74753        -1.78602
H         38.25865        42.01447        -1.59983
H         40.21440        62.39550         0.83773
H         41.98851        35.58344        -1.58315
H         40.81271        37.63536        -1.32425
H         42.65540        62.39204         1.80785
H         45.46180        32.34595        -2.27553
H         43.27979        33.54150        -2.13795
H         45.19274        62.51018         1.13157
H         47.54626        33.42738        -1.44267
H         48.69730        35.38791        -0.45806
H         47.68646        62.53237         0.98558
H         49.85033        37.35976         0.41648
H         51.06622        39.44562         0.70940
H         50.13505        62.56169         0.39506
H         52.06851        41.67970        -0.12968
H         53.52716        43.73746         0.40872
H         52.52709        62.57711        -0.26769
H         54.71878        45.85783         0.00729
H         55.97304        48.02950        -0.04679
H         54.94460        62.54600        -0.91647
H         57.25105        50.23389        -0.06694
H         58.31354        52.33126        -0.77063
H         57.37598        62.49525        -1.45424
H         59.43587        54.40338        -1.29086
H         60.85648        56.69251        -1.18602
H         59.77463        62.48292        -1.88345
H         61.90054        58.73045        -2.19222
H         61.86962        61.22002        -2.35213
