         620
 CSIRO Nanostructure Databank - Neutral Graphene Oxide Data Set
C         23.41024        26.89843        -2.99425
C         23.53536        28.15546        -3.48897
C         23.17982        32.07767        -2.71577
C         23.08817        33.28454        -2.01224
C         22.92974        36.03657        -0.93798
C         22.93246        37.35826        -0.58363
C         22.95929        40.23612         0.06513
C         22.96115        41.57704         0.35482
C         22.95195        44.44123         0.97747
C         22.95136        45.79601         1.21796
C         25.40503        24.61535        -0.75043
C         24.38884        25.07463        -1.51766
C         25.75022        27.20362        -1.98071
C         24.55684        26.28447        -2.33068
C         25.65544        28.64759        -2.26905
C         24.62671        29.02251        -3.10321
C         25.55455        31.84599        -2.04756
C         24.37628        31.37307        -2.70880
C         25.50577        33.21723        -1.57981
C         24.23259        33.86607        -1.46291
C         25.43961        35.92068        -0.54052
C         24.12998        35.19341        -0.81484
C         25.39053        37.40055        -0.64598
C         24.13667        38.10891        -0.37853
C         25.42182        40.22012        -0.00558
C         24.17023        39.50432        -0.13051
C         25.40889        41.62958         0.29003
C         24.17498        42.31556         0.47062
C         25.39597        44.44128         0.79723
C         24.16575        43.72793         0.75263
C         25.39780        45.85139         1.02678
C         24.16737        46.53231         1.23617
C         25.35627        48.64386         1.43816
C         24.17636        47.93911         1.44901
C         27.84294        23.24571         0.02697
C         27.77029        24.66601        -0.02243
C         26.65282        25.33678        -0.57446
C         27.88694        27.48995        -0.81777
C         26.74093        26.70633        -1.00080
C         27.94181        28.86953        -1.24631
C         26.59117        29.55650        -1.45433
C         27.99183        31.69956        -1.76709
C         26.70694        31.02400        -1.85895
C         28.00466        33.27522        -1.52428
C         26.71527        33.91249        -1.24298
C         27.94319        35.96023        -0.54175
C         26.72113        35.24725        -0.81288
C         27.91404        37.33691        -0.26377
C         26.71737        38.14318        -0.52439
C         27.89458        40.23748         0.10517
C         26.66587        39.55403        -0.10833
C         27.89202        41.66383         0.25514
C         26.64235        42.34923         0.37664
C         27.86585        44.47941         0.63502
C         26.63743        43.75494         0.60663
C         27.86455        45.89649         0.82465
C         26.62559        46.58462         1.02739
C         27.84370        48.72628         1.15992
C         26.60890        47.99307         1.22476
C         27.87053        50.14166         1.46331
C         30.25202        23.20503         0.54725
C         29.01431        22.55741         0.28464
C         30.23982        24.67304         0.64363
C         28.96893        25.42775         0.34801
C         30.37032        27.42164        -0.48556
C         29.03491        26.88833        -0.10224
C         30.40909        28.79028        -1.10833
C         29.15290        29.56788        -1.24996
C         30.43857        31.72333        -1.33318
C         29.23848        30.99536        -1.43766
C         30.45116        33.14634        -1.07947
C         29.23947        33.87604        -1.01143
C         30.41473        35.88992        -0.25648
C         29.20326        35.23021        -0.55112
C         30.41778        37.28313         0.22516
C         29.08782        38.04868         0.23793
C         30.35600        40.21255         0.22733
C         29.12582        39.52487         0.17070
C         30.36572        41.65618         0.19868
C         29.11609        42.37271         0.27327
C         30.31273        44.54059         0.35294
C         29.10534        43.80338         0.41575
C         30.33717        45.94153         0.55643
C         29.08359        46.62750         0.78237
C         30.29260        48.80314         0.65485
C         29.04864        48.04397         0.89574
C         30.24587        50.29612         0.86700
C         29.00520        50.87799         1.39357
C         32.68506        20.35788         0.85831
C         31.50675        21.06485         0.81498
C         32.74543        23.17349         0.59495
C         31.47470        22.48812         0.68754
C         32.78041        24.55104         0.33956
C         31.59538        25.39628         0.47835
C         32.82870        27.45281        -0.24040
C         31.62769        26.79339        -0.02437
C         32.92736        28.82716        -0.64574
C         31.72540        29.50686        -1.18249
C         33.06393        31.75020        -1.29984
C         31.73726        30.99342        -1.40098
C         32.93014        33.14827        -0.74721
C         31.68964        33.82520        -0.75449
C         32.87840        35.94391        -0.20600
C         31.65947        35.21971        -0.40719
C         32.87441        37.37751        -0.01651
C         31.64725        38.07696         0.12600
C         32.83238        40.23057         0.14153
C         31.60833        39.49489         0.19385
C         32.82243        41.66182         0.09478
C         31.57855        42.36120         0.10812
C         32.81532        44.57360         0.16394
C         31.54099        43.84822        -0.17023
C         32.83513        45.93368         0.46653
C         31.58155        46.65469         0.59523
C         32.78246        48.78477         0.90797
C         31.59939        48.08784         0.73057
C         32.82066        50.26165         1.07713
C         31.52806        51.03737         1.08993
C         32.73771        53.08340         0.48212
C         31.56040        52.45197         0.69046
C         35.23270        18.85314         0.84993
C         35.21053        20.25731         0.79787
C         33.95805        21.00455         0.75716
C         35.24568        23.09301         0.59680
C         33.97535        22.40293         0.61973
C         35.26957        24.47701         0.45886
C         34.06249        25.20863         0.06943
C         35.31290        27.47292         0.19641
C         34.10096        26.70619        -0.12057
C         35.33478        28.84625        -0.00507
C         34.14096        29.54474        -0.48034
C         35.37598        31.68016        -0.35832
C         34.19094        30.96048        -0.64384
C         35.37349        33.11563        -0.35829
C         34.13097        33.83402        -0.45616
C         35.34157        35.96954        -0.11460
C         34.11259        35.25246        -0.25082
C         35.33744        37.38827         0.04029
C         34.09594        38.09548         0.07395
C         35.28947        40.26656         0.19735
C         34.08017        39.53622         0.14519
C         35.29092        41.67727         0.10175
C         34.05949        42.36466         0.00997
C         35.36504        44.57485         0.10211
C         34.05597        43.83532        -0.09974
C         35.31329        45.98307         0.54938
C         34.09505        46.63771         0.66963
C         35.33050        48.85204         1.08514
C         34.03799        48.02998         1.28502
C         35.29584        50.27551         0.66398
C         34.05971        50.99134         0.71581
C         35.20704        53.10397         0.18927
C         34.00710        52.38595         0.50194
C         35.27023        54.50403         0.11958
C         37.67467        18.80483         0.83245
C         36.43717        18.14847         0.86202
C         37.70591        20.21732         0.77060
C         36.46828        20.94916         0.75907
C         37.73319        23.07968         0.60167
C         36.48505        22.36798         0.69785
C         37.75137        24.48306         0.67135
C         36.48801        25.22173         0.75826
C         37.77039        27.48375         0.82413
C         36.46726        26.74557         0.75183
C         37.78523        28.90571         0.45153
C         36.57869        29.58078         0.15276
C         37.82785        31.69852         0.07382
C         36.59836        30.98706        -0.04602
C         37.82230        33.13273         0.01467
C         36.58637        33.82876        -0.14442
C         37.79638        35.97809         0.03691
C         36.57457        35.26079        -0.09366
C         37.78874        37.41406         0.11093
C         36.56792        38.09323         0.15627
C         37.81407        40.28847         0.19853
C         36.55623        39.54249         0.56336
C         37.81170        41.67539         0.22259
C         36.55172        42.41350         0.22943
C         37.83145        44.48537         0.80293
C         36.57621        43.78112         0.34920
C         37.79811        45.97533         0.54437
C         36.58372        46.65198         0.67490
C         37.81846        48.83045         0.35533
C         36.61954        48.11547         0.83037
C         37.75994        50.22910         0.17610
C         36.48945        50.90950         0.26867
C         37.76126        53.12442        -0.17768
C         36.41961        52.33187        -0.09371
C         37.72610        54.56024         0.10390
C         36.48061        55.20545         0.09489
C         40.11133        16.22595         2.12483
C         38.97348        16.85932         1.78776
C         40.20468        18.77914         0.81728
C         38.93299        17.96426         0.73700
C         40.22022        20.17252         0.73665
C         38.96125        20.92812         0.64717
C         40.22788        23.02533         0.22856
C         38.95787        22.31512         0.48276
C         40.27611        24.52405         0.23525
C         38.98897        25.25433         0.44517
C         40.31712        27.41973         0.45702
C         39.06214        26.70640         0.78598
C         40.26405        28.81339         0.35449
C         39.03490        29.56907         0.37800
C         40.30259        31.70633         0.28323
C         39.05504        30.99065         0.22955
C         40.29587        33.15353         0.29805
C         39.03431        33.86130         0.18171
C         40.24270        36.04436         0.42401
C         39.01221        35.27100         0.19307
C         40.27423        37.46947         0.06718
C         39.03881        38.15213         0.08013
C         40.27521        40.26925        -0.10108
C         39.04053        39.57173         0.04817
C         40.28283        41.69200        -0.04868
C         39.05681        42.39491         0.13911
C         40.30209        44.48881         0.26649
C         39.08527        43.79610         0.31614
C         40.29435        45.94522         0.51774
C         39.02385        46.69349         0.43944
C         40.27833        48.80696        -0.01853
C         39.03893        48.10067         0.26330
C         40.24673        50.25688        -0.13393
C         38.99500        50.95560        -0.02252
C         40.21407        53.09391         0.12568
C         39.00758        52.37133        -0.00066
C         40.19340        54.51390         0.33541
C         38.96061        55.23606         0.39050
C         40.18133        57.27924         0.93881
C         38.99380        56.62599         0.70747
C         42.67709        16.12453         2.11832
C         41.42096        16.61049         1.55831
C         42.74221        18.74398         0.98892
C         41.46493        18.04216         0.90379
C         42.73010        20.17225         0.90462
C         41.47818        20.85171         0.78868
C         42.68483        23.07436         0.95290
C         41.50862        22.28885         0.49377
C         42.70210        24.54108         0.80647
C         41.54906        25.23151         0.54043
C         42.79151        27.35702         0.59227
C         41.55216        26.68693         0.50506
C         42.81389        28.78921         0.27738
C         41.50658        29.54648         0.10901
C         42.77488        31.67820         0.38478
C         41.52247        31.00646         0.28938
C         42.75186        33.12241         0.54293
C         41.49618        33.84310         0.39413
C         42.76097        36.02971         0.04861
C         41.55787        35.31115         0.51061
C         42.74311        37.38320        -0.26549
C         41.49986        38.13572        -0.15523
C         42.71148        40.27232        -0.52207
C         41.50189        39.55810        -0.28429
C         42.73160        41.67375        -0.41960
C         41.51679        42.39916        -0.14166
C         42.76775        44.54301        -0.19187
C         41.52575        43.81383        -0.01698
C         42.79692        45.93924        -0.10875
C         41.58831        46.69821         0.28240
C         42.71914        48.77998        -0.51694
C         41.48658        48.11808        -0.08098
C         42.71161        50.31143        -0.57539
C         41.44560        50.99096        -0.24897
C         42.67611        53.12705         0.02748
C         41.46236        52.40497        -0.02170
C         42.67031        54.49713         0.39933
C         41.42529        55.19411         0.54192
C         42.65447        57.25296         1.05598
C         41.42461        56.58702         0.85124
C         43.86642        16.72662         1.81746
C         45.20053        18.74291         1.09373
C         43.94079        18.04558         1.23507
C         45.20793        20.16122         0.89063
C         43.97028        20.86837         0.89541
C         45.23292        23.10112         0.91359
C         43.98468        22.32845         1.08124
C         45.22069        24.45773         1.00204
C         43.95315        25.24059         1.30907
C         45.25570        27.34340         0.72337
C         44.02271        26.67935         0.83742
C         45.30325        28.81759         0.76486
C         44.01149        29.57479         0.65629
C         45.26477        31.69748         0.21453
C         44.02033        31.02137         0.38177
C         45.27496        33.08767        -0.03159
C         44.07639        33.86442         0.26995
C         45.20343        35.92046        -0.75342
C         43.93667        35.22592        -0.29989
C         45.17878        37.39174        -0.78122
C         43.96789        38.05950        -0.66102
C         45.21396        40.22894        -0.97659
C         43.89174        39.50587        -1.09034
C         45.14020        41.70117        -1.11820
C         43.94498        42.41832        -0.64411
C         45.23711        44.53071        -0.58992
C         43.97302        43.81489        -0.53141
C         45.24475        45.96619        -0.39559
C         44.02570        46.66630        -0.28062
C         45.20739        48.83391        -0.36244
C         44.01366        48.09736        -0.34097
C         45.19674        50.29696        -0.35708
C         43.99784        51.00282        -0.39249
C         45.19204        53.16472         0.07723
C         43.95873        52.51476        -0.48266
C         45.16022        54.46211         0.56796
C         43.89513        55.19224         0.64622
C         43.85661        56.56313         0.96676
C         47.63627        18.75742         0.95473
C         46.44914        18.07437         1.13841
C         47.66673        20.16419         0.72851
C         46.44371        20.86321         0.73867
C         47.74904        23.00953         0.63495
C         46.42982        22.33319         0.38670
C         47.79497        24.45742         0.85571
C         46.50189        25.21822         1.02087
C         47.72388        27.34238         0.50671
C         46.50887        26.66081         0.72884
C         47.73229        28.78242         0.30811
C         46.54195        29.53290         0.43049
C         47.71357        31.59109        -0.16887
C         46.51150        30.93038         0.16589
C         47.69184        33.00287        -0.60950
C         46.45376        33.80076        -0.44986
C         47.71048        35.90690        -1.11727
C         46.46937        35.16982        -0.65816
C         47.65619        37.39784        -0.84222
C         46.45088        38.09454        -0.85634
C         47.70056        40.25056        -0.93220
C         46.42943        39.55461        -0.90827
C         47.74935        41.68757        -1.43810
C         46.44865        42.47561        -1.26055
C         47.72560        44.50942        -0.32990
C         46.44546        43.86089        -0.78862
C         47.71737        46.01175        -0.47951
C         46.47859        46.70103        -0.42334
C         47.68626        48.84636        -0.31091
C         46.45602        48.12962        -0.35369
C         47.66894        50.29665        -0.19239
C         46.46477        50.98884        -0.23181
C         47.68033        53.09465         0.43752
C         46.49639        52.50153        -0.27417
C         47.57616        54.38096         0.99505
C         46.37456        55.06818         1.03514
C         50.15506        20.19173         0.36326
C         48.92845        20.86638         0.49908
C         50.19599        23.02731         0.33842
C         48.94578        22.30708         0.47698
C         50.20488        24.45978         0.26580
C         49.00420        25.20033         0.47149
C         50.18795        27.31504         0.11079
C         48.96682        26.60761         0.37941
C         50.18071        28.73816        -0.00385
C         48.95285        29.47334         0.05075
C         50.19785        31.60448        -0.24039
C         48.94642        30.88861        -0.15112
C         50.23601        33.04880        -0.34607
C         49.00090        33.76226        -0.70304
C         50.15025        35.94995        -0.44047
C         48.98544        35.23317        -0.65857
C         50.10215        37.40092        -0.48036
C         48.90602        38.10117        -0.69452
C         50.17153        40.26670        -0.78473
C         48.89696        39.55394        -0.77186
C         50.17733        41.68836        -0.96521
C         48.99031        42.43473        -1.01275
C         50.17887        44.57958        -0.76479
C         48.98804        43.84470        -0.82921
C         50.19904        46.00096        -0.54248
C         48.93032        46.72511        -0.49615
C         50.16533        48.90845        -0.50400
C         48.90330        48.14664        -0.42443
C         50.16142        50.31865        -0.06631
C         48.92814        51.00185         0.01638
C         50.15115        53.01428         0.69219
C         48.91753        52.38110         0.38917
C         51.35391        20.87929         0.21515
C         52.65176        23.01546         0.01624
C         51.40937        22.29857         0.19910
C         52.63756        24.41879        -0.09113
C         51.42818        25.16011         0.02351
C         52.62321        27.33564        -0.21419
C         51.41320        26.60109        -0.03848
C         52.64070        28.73578        -0.19943
C         51.40284        29.44957        -0.13676
C         52.67127        31.57696        -0.02495
C         51.39132        30.87294        -0.16649
C         52.67424        33.08244         0.01444
C         51.40511        33.78995        -0.22272
C         52.64258        35.92084        -0.18846
C         51.42326        35.23697        -0.27710
C         52.65190        37.39584        -0.06044
C         51.33881        38.15701        -0.20464
C         52.65050        40.27242        -0.52505
C         51.38334        39.59188        -0.55229
C         52.70159        41.66757        -0.73499
C         51.46409        42.37168        -1.07640
C         52.70907        44.58122        -0.64647
C         51.45948        43.91598        -1.03069
C         52.67750        45.97114        -0.39691
C         51.42414        46.67322        -0.44629
C         52.69703        48.84411        -0.03389
C         51.47196        48.14723        -0.47825
C         52.65653        50.24089         0.19814
C         51.38714        50.96948         0.21334
C         51.34578        52.33270         0.60035
C         55.11684        22.98062        -0.17268
C         53.91534        22.32779        -0.07463
C         55.20050        24.41245        -0.22004
C         53.90504        25.12133        -0.39827
C         55.15550        27.36074        -0.31080
C         53.88737        26.61752        -0.46357
C         55.15807        28.73407        -0.38737
C         53.89195        29.46755        -0.37142
C         55.11098        31.60794        -0.82849
C         53.90566        30.84071        -0.34687
C         55.10578        33.06742        -0.41512
C         53.95284        33.79092        -0.21866
C         55.11838        35.97164        -0.28052
C         53.92472        35.24384        -0.19006
C         55.12803        37.41675        -0.40536
C         53.90984        38.13298        -0.29915
C         55.13539        40.25636        -0.46887
C         53.89499        39.54593        -0.40153
C         55.14710        41.68671        -0.52573
C         53.92157        42.39678        -0.65470
C         55.14416        44.54307        -0.41982
C         53.92026        43.84091        -0.61461
C         55.10514        45.95076        -0.19252
C         53.90476        46.67191        -0.15386
C         55.10751        48.81395         0.38741
C         53.90686        48.11504         0.09073
C         55.06686        50.20738         0.55290
C         53.86997        50.90399         0.48252
C         57.67967        24.48219        -0.16898
C         56.39454        25.12500        -0.16354
C         57.65522        27.34619        -0.16002
C         56.37653        26.61101         0.14798
C         57.65042        28.76444        -0.27928
C         56.40756        29.48351        -0.36406
C         57.63512        31.58542        -0.59904
C         56.41546        30.88303        -0.54091
C         57.60707        33.06056        -0.93266
C         56.40048        33.74033        -0.31769
C         57.64865        35.93811        -0.62534
C         56.40564        35.26093        -0.23117
C         57.64109        37.42254        -0.89454
C         56.35140        38.12783        -0.53604
C         57.63469        40.25990        -0.49384
C         56.36802        39.53478        -0.49262
C         57.63409        41.68754        -0.47977
C         56.38916        42.40143        -0.48302
C         57.64038        44.51609        -0.38787
C         56.39047        43.81891        -0.41740
C         57.61823        45.98953        -0.38123
C         56.37493        46.63175         0.13398
C         57.70384        48.80145         0.42265
C         56.39748        48.08573         0.48527
C         58.84868        25.18957        -0.13935
C         60.08988        27.34804        -0.26216
C         58.86552        26.63583        -0.17006
C         60.09908        28.72706        -0.32850
C         58.89014        29.47070        -0.35138
C         60.07628        31.67833        -0.43893
C         58.87916        30.91242        -0.46833
C         60.06733        33.07691        -0.48346
C         58.88767        33.80476        -0.64115
C         60.08011        36.01542        -0.90289
C         58.84767        35.24362        -0.71328
C         60.10760        37.34463        -0.69964
C         58.85926        38.06486        -0.22648
C         60.06692        40.28480        -0.37969
C         58.86225        39.56580        -0.42847
C         60.07800        41.67089        -0.41519
C         58.87197        42.40228        -0.44419
C         60.09806        44.60913        -0.29445
C         58.86677        43.84758        -0.41141
C         60.13321        45.96338        -0.20163
C         58.90658        46.76312        -0.31669
C         58.86049        48.17211         0.14908
O         50.92529        48.68872        -1.74518
O         40.90388        35.81157         1.72681
O         28.14877        32.68819        -2.83622
O         38.50380        27.14210         2.05449
O         56.42988        47.04655         1.54685
O         42.30310        29.10566        -1.05501
O         41.05693        22.53176        -0.88553
O         51.55990        43.19128        -2.29152
O         24.43197        30.30703        -3.59345
O         28.77342        26.54732         1.28000
O         31.84488        30.07195        -2.54662
O         41.46975        16.79862         0.11584
O         37.03376        52.69086        -1.36822
O         52.73155        32.31323         1.27318
O         41.13320        46.37171         1.65352
O         44.57388        29.29658         1.97179
O         26.09561        37.88461        -1.83726
O         44.27131        35.29299        -1.72235
O         36.20463        26.03940         2.00908
O         25.76398        26.33249        -3.16056
O         30.16233        49.73651        -0.48722
O         29.66354        37.49045         1.46895
O         43.17246        22.68285         2.28758
O         39.54619        25.06684        -0.91833
O         43.58857        33.68456         1.62011
O         48.34214        33.20387        -1.92173
O         32.20119        50.72894         2.34991
O         24.70107        35.30131         0.54854
O         53.84755        25.81418        -1.71709
O         51.91434        37.87207         1.12572
O         45.57614        42.25052        -2.42226
O         47.29823        24.86627         2.20832
O         56.61425        34.39354         0.95644
O         34.81795        44.36814        -1.25031
O         30.94572        25.21237         1.79299
O         30.40720        27.58922        -1.95799
O         58.17361        46.59324        -1.59562
O         36.24938        48.60834         2.20502
O         42.61984        49.49245        -1.79345
O         34.25512        25.80047        -1.29497
O         43.59769        39.44664        -2.53652
H         44.29586        38.90212        -2.95995
O         46.24529        22.39425        -1.08781
H         46.91695        21.80345        -1.49182
O         37.85283        44.35585         2.26729
H         38.65316        44.82048         2.59424
O         46.70846        52.82671        -1.73008
H         46.92013        53.78462        -1.77701
O         57.81917        37.60874        -2.33064
H         57.08501        37.15392        -2.79347
O         57.40156        33.17125        -2.38280
H         58.11103        32.65881        -2.82433
O         31.43765        43.93599        -1.64927
H         31.54279        44.87942        -1.89771
O         56.26251        26.63807         1.63228
H         56.42588        27.56168         1.92194
O         38.88283        17.31064        -0.56451
H         39.76143        16.87601        -0.69293
O         43.81772        25.31537         2.75882
H         43.67691        24.38952         3.07315
O         54.96907        31.63222        -2.29357
H         55.09187        30.71531        -2.61958
O         33.52448        31.96975        -2.67184
H         33.24455        31.17388        -3.18442
O         47.72303        35.79980        -2.58250
H         47.83990        34.83813        -2.78591
O         47.94957        41.52210        -2.87766
H         47.05363        41.55452        -3.29212
O         43.96616        52.80916        -1.92668
H         44.89531        52.65558        -2.23568
O         36.54543        39.51099         2.04346
H         37.35321        39.03483         2.33273
O         58.72621        37.84250         1.20167
H         59.49315        38.25449         1.65022
O         25.99935        29.60180        -0.10768
H         25.15967        30.10619        -0.16022
O         33.89485        47.79093         2.71650
H         34.79763        47.88516         3.10693
O         47.76866        44.26639         1.13638
H         47.03368        44.77772         1.53858
H         22.48030        26.32514        -3.11742
H         22.71737        28.61671        -4.05947
H         22.31703        31.67977        -3.26415
H         22.11619        33.78859        -1.94496
H         21.97992        35.57876        -1.24637
H         21.97134        37.89114        -0.58511
H         21.99467        39.71808        -0.01419
H         21.99641        42.08247         0.49069
H         21.99141        43.90997         0.96357
H         22.00337        46.32614         1.38884
H         25.25798        23.68964        -0.17648
H         23.41931        24.55589        -1.53889
H         25.31954        49.73109         1.58429
H         23.22201        48.46112         1.60914
H         26.94886        22.65883        -0.22288
H         26.95965        50.61953         1.84721
H         28.98490        21.46034         0.23883
H         29.02150        51.91367         1.76232
H         32.63549        19.26803         0.98419
H         30.56240        20.51207         0.91284
H         32.72336        54.14143         0.18995
H         30.60857        52.97867         0.53064
H         34.29458        18.28252         0.86004
H         34.35125        55.09692         0.21736
H         36.41007        17.04990         0.86299
H         36.43361        56.30005         0.17285
H         40.10171        15.43223         2.88830
H         38.02470        16.54069         2.24619
H         40.18441        58.35135         1.18267
H         38.05466        57.19148         0.77090
H         42.65228        15.24975         2.78489
H         42.65310        58.32664         1.29207
H         44.79396        16.27608         2.19852
H         44.78968        57.11623         1.13687
H         48.57565        18.18887         0.97787
H         46.48047        16.98643         1.28927
H         48.46069        54.85351         1.44418
H         46.35283        56.06569         1.49072
H         50.18455        19.09364         0.36921
H         50.16911        54.07474         0.97584
H         52.27494        20.29294         0.10232
H         52.27092        52.87436         0.83346
H         56.03961        22.38408        -0.16650
H         53.92939        21.23136        -0.01459
H         55.98876        50.76351         0.76795
H         53.89229        51.98863         0.64441
H         57.72822        23.38630        -0.23890
H         57.72993        49.86458         0.70351
H         59.81180        24.65919        -0.15759
H         61.03675        26.78938        -0.26886
H         61.06456        29.24713        -0.38572
H         61.04236        31.17342        -0.30985
H         61.02165        33.60654        -0.35108
H         60.99503        35.48569        -1.20598
H         61.05417        37.89051        -0.82190
H         61.02648        39.75429        -0.31143
H         61.04562        42.18782        -0.39461
H         61.04775        44.06297        -0.21540
H         61.08511        46.48009        -0.00818
H         59.81200        48.72371         0.20085
