         668
 CSIRO Nanostructure Databank - Neutral Graphene Oxide Data Set
C          6.16366        31.75746         1.68020
C          6.20494        33.10820         1.87643
C          8.32489        27.49042         0.53968
C          8.35311        28.86838         0.61699
C          7.22500        29.63440         1.04616
C          8.61676        31.67643         1.21537
C          7.33203        30.99357         1.30288
C          8.71424        33.02036         1.90905
C          7.44640        33.83584         1.81990
C          8.72852        35.91839         1.59569
C          7.50361        35.20353         1.87354
C          8.61564        37.40310         1.33048
C         10.84016        23.12215        -0.02657
C         10.79805        24.60740        -0.26094
C          9.52268        25.35178         0.08183
C         10.80228        27.45849         0.53915
C          9.51663        26.70239         0.28556
C         10.80402        28.88298         0.06216
C          9.52646        29.66159         0.08713
C         11.03227        31.66043         0.57578
C          9.72406        31.03157         0.71315
C         11.21194        33.06485         1.03820
C         10.00058        33.79676         1.55620
C         10.93618        35.98150         0.48225
C          9.90548        35.26222         1.33772
C         11.08137        37.42627         0.89330
C          9.94227        38.11488         1.39237
C         11.28753        40.13675         1.66107
C         10.04274        39.44576         1.76350
C         11.41768        41.48879         2.04335
C         13.40068        18.88208        -0.44653
C         13.33399        20.27294        -0.14615
C         12.13263        20.99608        -0.18683
C         13.28235        23.12648         0.25133
C         12.06677        22.42872        -0.00209
C         13.25490        24.57183         0.68553
C         12.02836        25.32261         0.24539
C         13.29854        27.39879        -0.03311
C         12.05709        26.68686         0.25242
C         13.16803        28.77408        -0.57629
C         11.96770        29.54902        -0.19551
C         13.46558        31.62393        -0.19388
C         12.08520        30.98336        -0.01779
C         13.30102        33.09364        -0.44090
C         12.48630        33.81522         0.60280
C         13.33800        35.98515        -0.12960
C         12.26943        35.28630         0.31455
C         13.31692        37.48887        -0.24076
C         12.27195        38.11054         0.65832
C         13.66584        40.12743         0.94504
C         12.40553        39.45616         1.07788
C         13.81649        41.42668         1.47011
C         12.66949        42.15470         1.99343
C         14.09263        44.18953         2.64020
C         12.78814        43.47675         2.44461
C         13.92215        45.56474         1.98695
C         15.77536        14.53348        -0.99005
C         15.39329        15.73164        -0.39075
C         14.50154        16.75632        -0.76634
C         15.79978        18.78801         0.16082
C         14.56908        18.11418        -0.29172
C         15.78195        20.24547         0.25219
C         14.57549        20.93822         0.16816
C         15.84931        23.14581         0.48218
C         14.51771        22.37775         0.45397
C         15.85473        24.62351         0.29428
C         14.55802        25.35490         0.39636
C         15.58956        27.22675        -1.05421
C         14.46238        26.71429        -0.19103
C         15.63481        28.74868        -1.15711
C         14.35078        29.47571        -1.14928
C         15.66684        31.69842        -1.43701
C         14.29700        30.99624        -1.34231
C         15.66117        33.06416        -1.44948
C         14.39299        33.80600        -1.11641
C         15.76674        36.00409        -0.88024
C         14.47649        35.30444        -0.80360
C         15.84026        37.39865        -0.52795
C         14.69246        38.09838        -0.07420
C         16.03086        40.14093         0.20473
C         14.79842        39.43070         0.37794
C         16.10984        41.50580         0.63836
C         15.09151        42.07073         1.41354
C         16.04369        44.45431         0.20490
C         15.29442        43.29997         2.25735
C         16.03902        45.77861         0.66818
C         14.85816        46.36037         1.29298
C         15.95598        48.58367         1.10835
C         14.80652        47.78114         1.36787
C         15.94199        49.99279         1.20877
C         18.40223        10.32461        -0.56567
C         18.39552        11.81252        -0.35291
C         17.08545        12.49870        -0.64144
C         18.29658        14.62658        -0.41620
C         17.02693        13.87173        -0.62538
C         18.30915        16.03170        -0.06976
C         17.17437        16.71914         0.38655
C         18.31068        18.86283         0.65378
C         17.02594        18.13721         0.35338
C         18.28196        20.33200         0.35548
C         17.04030        20.99266         0.30567
C         18.27741        23.09264        -0.11943
C         17.07567        22.40447         0.17778
C         18.26520        24.48428        -0.70201
C         17.01770        25.26853        -0.34904
C         18.11623        27.26293        -1.14144
C         16.92739        26.58816        -0.70129
C         17.93316        28.49455        -1.72778
C         16.78949        29.37577        -1.52806
C         18.22748        31.57581        -2.02850
C         16.97270        30.91027        -1.30621
C         18.22139        33.12686        -1.96970
C         16.88145        33.88705        -1.79031
C         17.91818        36.20957        -1.91112
C         16.85381        35.36457        -1.48719
C         18.19167        37.48252        -1.37663
C         17.08090        38.11362        -0.69484
C         18.29348        40.27124        -0.95277
C         17.14301        39.48220        -0.38229
C         18.53194        41.58337        -0.24742
C         17.33980        42.28174         0.33102
C         18.45854        44.46913        -0.09439
C         17.27543        43.74008         0.12249
C         18.43068        45.89576         0.08019
C         17.24242        46.52851         0.56429
C         18.38651        48.68799         0.60071
C         17.20271        47.93179         0.77101
C         18.35983        50.10152         0.75414
C         17.11884        50.77224         1.02241
C         18.30200        52.93955         0.93586
C         17.11367        52.19417         1.06179
C         18.29119        54.39109         0.85316
C         20.93982         6.12584        -0.65956
C         20.87600         7.55540        -0.85292
C         19.66973         8.22291        -0.73946
C         20.87823        10.44560        -0.52186
C         19.59148         9.65897        -0.64939
C         20.82772        11.78913        -1.36005
C         19.44284        12.54048        -1.23004
C         20.75787        14.67531        -0.75004
C         19.50737        13.98065        -0.73082
C         20.71538        16.13886        -0.71360
C         19.49609        16.82685        -0.29430
C         20.74365        18.89386         0.15626
C         19.50975        18.18462         0.01408
C         20.74802        20.33534         0.61438
C         19.48404        21.04695         0.24875
C         20.76394        23.09441        -0.61769
C         19.50170        22.41584        -0.08839
C         20.76127        24.62090        -0.49459
C         19.56821        25.26465        -0.53189
C         20.73788        27.48781        -0.86328
C         19.43784        26.77398        -0.52997
C         20.78204        28.91916        -0.93355
C         19.72756        29.68864        -1.55075
C         20.78266        31.76457        -1.09191
C         19.50669        31.01623        -1.40332
C         20.61774        33.23955        -0.95296
C         19.53433        33.80940        -1.67416
C         20.79106        35.94737        -1.66158
C         19.74780        35.12740        -2.09077
C         20.70229        37.40172        -2.14011
C         19.48721        38.14237        -1.52945
C         20.75027        40.28626        -1.43611
C         19.56887        39.50087        -1.22675
C         20.76428        41.68724        -1.28813
C         19.65320        42.39433        -0.75859
C         20.82567        44.55977        -0.86642
C         19.65549        43.79290        -0.56065
C         20.69373        46.06866        -0.95137
C         19.59722        46.66534        -0.10982
C         20.82538        48.79506         0.17288
C         19.60712        48.03512         0.21961
C         20.82626        50.16471         0.39532
C         19.56972        50.84776         0.65084
C         20.81881        53.00800         0.98692
C         19.54025        52.23836         0.81436
C         20.70159        54.37876         0.36680
C         19.42532        55.12505         0.54083
C         20.60245        57.26260         0.01867
C         19.43338        56.53413         0.26440
C         20.62811        58.66606        -0.21275
C         23.33696         3.38570        -0.00318
C         22.17392         4.05209        -0.16498
C         23.39354         6.07352        -1.02294
C         22.11824         5.42582        -0.63111
C         23.38370         7.58027        -1.27693
C         22.10679         8.31383        -1.07031
C         23.29482        10.48348        -1.27766
C         22.09535         9.67963        -0.98670
C         23.27940        11.92931        -0.99028
C         22.07289        12.59418        -0.97143
C         23.24968        14.73234        -0.49915
C         22.01383        14.03039        -0.82557
C         23.22970        16.06455        -0.08674
C         22.06220        16.87683        -0.36965
C         23.11184        18.89048         0.75085
C         21.93805        18.21587         0.17226
C         23.17340        20.34026         0.46005
C         22.02349        21.05418         0.22638
C         23.23501        23.18791         0.00600
C         22.04515        22.46422        -0.09147
C         23.31439        24.62652        -0.18680
C         22.09170        25.29027        -0.89154
C         23.10699        27.65847        -0.81072
C         21.97045        26.82471        -0.77954
C         23.12450        29.00517        -0.32224
C         21.87709        29.64651        -0.46186
C         22.95453        31.82202         0.21090
C         21.65949        31.07365        -0.03857
C         22.72547        33.31414         0.45204
C         21.73981        33.98483        -0.53977
C         22.99729        36.16255        -0.57619
C         21.82020        35.37584        -0.86399
C         23.07922        37.49264        -0.99681
C         22.10981        38.08762        -2.00292
C         23.22570        40.34072        -1.47167
C         21.99205        39.65277        -2.02636
C         23.24614        41.73388        -1.44668
C         21.97304        42.48958        -1.74985
C         23.26540        44.60355        -1.21431
C         22.00894        43.91885        -1.23762
C         23.29974        46.06631        -1.02384
C         22.02193        46.80868        -0.82453
C         23.35085        48.79601        -0.08744
C         22.10225        47.99746         0.12562
C         23.30680        50.28577        -0.23654
C         22.05494        50.93750         0.30528
C         23.30847        53.05773         0.44258
C         22.06630        52.29105         0.52008
C         23.27213        54.43371         0.43224
C         21.98083        55.11901         0.19658
C         23.19250        57.34281        -0.00297
C         21.92205        56.60235         0.23254
C         23.10257        58.64924        -0.74206
C         21.81622        59.38915        -0.43694
C         23.05728        61.49561        -0.66768
C         21.84370        60.79161        -0.52044
C         24.68322         3.95352        -0.35221
C         25.80009         6.18640        -0.46892
C         24.66505         5.44787        -0.59140
C         25.82317         7.62666        -0.66457
C         24.64541         8.30089        -1.03848
C         25.85720        10.50872        -0.82687
C         24.66332         9.74448        -1.21733
C         25.82462        11.89720        -0.73352
C         24.58751        12.68064        -1.13569
C         25.70139        14.68982        -0.12146
C         24.51927        14.03605        -0.48605
C         25.68494        16.04733         0.35256
C         24.34900        16.58270         0.80417
C         25.62454        18.83402         1.06726
C         24.34730        18.09509         1.02513
C         25.53582        20.31862         1.32209
C         24.48813        20.97184         0.43490
C         25.66505        23.17224         0.84566
C         24.50612        22.46566         0.27496
C         25.62555        24.57164         0.82037
C         24.52438        25.24674         0.14720
C         25.57829        27.45603         0.66770
C         24.83938        26.63572        -0.14147
C         25.39046        28.93154         0.78618
C         24.24103        29.70323         0.24387
C         25.24205        31.85030         1.29975
C         24.13007        31.13435         0.49713
C         25.28685        33.37354         1.06755
C         24.01932        34.11227         0.64280
C         25.48069        36.13594         0.00604
C         24.13319        35.53296         0.15061
C         25.52438        37.49221        -0.46799
C         24.32818        38.18785        -0.87521
C         25.60142        40.31312        -0.92480
C         24.38726        39.59645        -1.11974
C         25.62858        41.71236        -0.95574
C         24.44589        42.44426        -1.16581
C         25.73634        44.57536        -0.95577
C         24.47228        43.88987        -1.12754
C         25.76102        46.01070        -0.77037
C         24.56515        46.71366        -0.62958
C         25.81037        48.79286        -0.14848
C         24.56679        48.11251        -0.29493
C         25.78811        50.14097         0.53885
C         24.56691        50.96764         0.23371
C         25.84830        53.05016         0.39927
C         24.58010        52.32613         0.42607
C         25.85240        54.52305         0.43523
C         24.50620        55.24865         0.46692
C         25.66577        57.32086        -0.29734
C         24.48071        56.62156        -0.03389
C         25.58716        58.75344        -0.52055
C         24.38594        59.43915        -0.60487
C         24.29340        60.85875        -0.68567
C         27.01930         8.35658        -0.47065
C         28.25884        10.48978        -0.30709
C         27.06321         9.77480        -0.52609
C         28.26828        11.90406        -0.28078
C         27.01903        12.60945        -0.41553
C         28.17687        14.73469         0.03642
C         26.98166        14.01596        -0.20123
C         28.13742        16.13530         0.31746
C         26.85773        16.77195         0.51899
C         28.06954        18.92283         0.99511
C         26.82626        18.18959         0.87117
C         28.03410        20.33404         1.29585
C         26.85339        21.03583         1.26117
C         28.02884        23.22317         1.48346
C         26.83307        22.48408         1.26417
C         27.97243        24.64123         1.46085
C         26.76565        25.31378         1.23446
C         27.92210        27.57485         1.45686
C         26.61805        26.78798         1.55313
C         27.88066        28.94384         1.40228
C         26.60760        29.70521         1.29968
C         27.82123        31.85447         1.11088
C         26.63273        31.19166         1.14416
C         27.93272        33.35879         1.31307
C         26.61189        34.10040         1.01271
C         27.93620        36.04131         0.18400
C         26.66554        35.44435         0.36439
C         27.98144        37.47357        -0.12186
C         26.75493        38.16940        -0.50634
C         28.05650        40.21810        -0.95746
C         26.84180        39.57452        -0.76982
C         28.07401        41.66919        -1.35468
C         26.93623        42.39176        -0.65047
C         28.20528        44.53603        -0.87750
C         26.94419        43.87237        -0.90226
C         28.23556        45.97787        -0.74233
C         27.01146        46.69440        -0.64049
C         28.28751        48.76875        -0.29992
C         27.02799        48.09614        -0.35003
C         28.35266        50.20639         0.02121
C         27.09702        50.92431         0.39530
C         28.25820        53.09844        -0.17483
C         27.04509        52.39061         0.19780
C         28.20428        54.49420        -0.35049
C         27.02304        55.24737        -0.10343
C         26.91826        56.62239        -0.34145
C         29.46568        12.64454        -0.11731
C         30.63906        14.81475         0.09180
C         29.44957        14.05042        -0.00335
C         30.60971        16.21754         0.26333
C         29.33235        16.88137         0.43831
C         30.52147        19.06109         0.74638
C         29.29306        18.27962         0.74386
C         30.50722        20.38662         1.10644
C         29.30038        21.01283         1.74261
C         30.47183        23.22832         1.90574
C         29.29806        22.53211         1.66627
C         30.43214        24.69584         1.99520
C         29.26961        25.40599         1.34292
C         30.33925        27.58368         1.90780
C         29.17841        26.87624         1.68168
C         30.38505        29.00814         1.68128
C         29.08908        29.77260         1.79319
C         30.40343        31.85849         1.43850
C         29.14196        31.08093         1.00170
C         30.42139        33.26147         0.86583
C         29.18367        33.97314         0.71264
C         30.43808        36.01982         0.13082
C         29.18314        35.34710         0.35250
C         30.54134        37.33710        -0.36572
C         29.29376        38.12629        -0.44680
C         30.58227        40.18371        -0.78914
C         29.30500        39.42659        -1.22400
C         30.57090        41.64622        -1.18772
C         29.40418        42.36654        -1.13477
C         30.68270        44.47749        -0.91316
C         29.42114        43.80798        -1.00183
C         30.73911        45.90866        -0.44747
C         29.46070        46.66705        -0.66601
C         30.74247        48.81255        -0.69141
C         29.48330        48.07886        -0.53424
C         30.71058        50.22578        -0.72662
C         29.53847        50.97002        -0.43454
C         29.45609        52.36645        -0.46720
C         31.79771        16.98025         0.27122
C         32.94387        19.15592         0.27485
C         31.79225        18.39720         0.41760
C         32.83836        20.65751         0.26091
C         31.78011        21.12559         1.24075
C         33.08479        23.26910         1.65405
C         31.79445        22.51766         1.80421
C         33.36863        24.32936         2.48409
C         31.40809        25.44024         2.58505
C         32.85546        27.37490         1.74651
C         31.57324        26.94314         2.50900
C         32.79939        28.75701         1.12381
C         31.57405        29.60103         1.29130
C         32.86010        31.69281         0.95368
C         31.65484        31.04070         1.12505
C         32.89714        33.19286         1.23217
C         31.64034        33.90086         0.77102
C         32.96388        36.00462         0.24523
C         31.67283        35.40128         0.71764
C         32.99973        37.34439        -0.19280
C         31.77771        37.99794        -0.55620
C         33.10886        40.13544        -0.84318
C         31.84469        39.38014        -1.18372
C         33.15692        41.56623        -1.17082
C         31.85563        42.34727        -1.33617
C         33.15132        44.49102        -1.06479
C         31.87898        43.79890        -1.11011
C         33.14590        45.92378        -1.08696
C         31.97235        46.65917        -0.89871
C         31.92813        48.07347        -0.92461
C         34.12687        21.40457         0.36401
C         35.42372        23.41621         0.83045
C         34.19555        22.66249         0.92184
C         35.61497        24.58318         1.53172
C         34.63466        25.06033         2.52044
C         35.44136        27.50388         1.49487
C         34.24090        26.99522         2.30851
C         35.38002        28.74927         0.94233
C         34.06843        29.45679         0.62075
C         35.31054        31.62508         0.75328
C         34.11173        30.96194         0.85839
C         35.31683        33.07627         0.47671
C         34.12958        33.87897         0.69887
C         35.41705        35.97229         0.28655
C         34.16810        35.26323         0.39502
C         35.45431        37.36352         0.06486
C         34.25080        38.05128        -0.23238
C         35.53028        40.20259        -0.39599
C         34.26832        39.47206        -0.48342
C         35.53499        41.62355        -0.54430
C         34.38180        42.33841        -0.86954
C         34.34676        43.75570        -0.96894
C         36.79870        25.38972         1.40304
C         37.93648        27.49880         1.23582
C         36.72165        26.76470         1.45283
C         37.92366        28.81404         0.84986
C         36.62611        29.47618         0.44278
C         37.89346        31.67582         0.63215
C         36.62566        30.91708         1.01231
C         37.92310        33.05046         0.53057
C         36.65943        33.79744         0.35959
C         38.00732        35.99436         0.48370
C         36.65246        35.25702         0.59937
C         37.93986        37.39651         0.10196
C         36.73011        38.07798         0.01333
C         36.71236        39.49248        -0.19615
C         39.13310        29.55558         0.73953
C         40.36713        31.65964         0.40202
C         39.13406        30.93863         0.58833
C         40.38611        33.01605         0.27532
C         39.16700        33.78617         0.35305
C         39.19031        35.16460         0.23021
O         18.97616        28.98180        -2.48456
O         11.04997        33.31225         2.48809
O         22.61973        57.25104         1.35119
O         28.04135        50.51605         1.45326
O         35.95135        33.40953        -0.84701
O         23.42296        18.47064         2.14110
O         21.26723        54.53813        -0.96638
O         21.02118        11.44557        -2.69201
O         13.38033        28.80071        -2.04869
O         32.05563        21.33111         2.67095
O         25.32184        55.07099         1.68307
O         22.84623        37.72466        -3.16605
O         17.45827        33.61812        -3.10788
O         14.02443        34.81142        -2.12178
O         32.39039        24.80758         3.36217
O         18.43052        41.74956         1.19494
O         25.57159        29.28917         2.22940
O         24.02570        10.15272        -2.48878
O         16.36464        43.50657         2.81620
O         21.52635        16.77148        -1.72734
O         24.29460        27.15914        -1.31910
O         34.30393        27.38027         3.56682
O         32.61506        41.87145        -2.52731
O         28.73816        38.29253         0.89895
O         16.08150        15.98281         0.82186
O         32.62740        27.50128         0.32799
O         37.35488        35.69056         1.78766
O         20.70695        22.89391        -2.03695
O         25.80669        34.07124         2.24732
O         23.40563         6.61154        -2.38030
O         18.76449        35.71217        -2.89450
O         15.21713        22.74076         1.72256
O         15.47110        25.33222         1.55092
O         24.92602        21.53467        -0.81960
O         23.76801        35.22496         1.56521
O          8.77560        32.69115         3.32913
H          9.72288        32.51014         3.53456
O         20.75507        20.30813         2.09140
H         21.59670        19.89091         2.38411
O         18.19374        31.21922        -3.41455
H         17.66621        31.90946        -3.88119
O         21.86592        42.65065        -3.19412
H         21.87259        41.73310        -3.57995
O         27.83522        41.70554        -2.78653
H         28.33213        40.95196        -3.18417
O         18.50856        18.70781         2.09788
H         19.27049        19.29367         2.34989
O         35.22756        25.12647         3.78920
H         34.90442        25.95911         4.23910
O         20.21877        46.27801        -2.31778
H         21.01666        46.24561        -2.89748
O         17.82143        40.70942        -2.27610
H         17.83608        39.93207        -2.87516
O         21.95623        39.98660        -3.43954
H         22.45176        39.21543        -3.85860
O         21.58606        31.65800        -2.32395
H         21.00620        31.88019        -3.08458
O         18.75077        12.07412         1.05192
H         18.00927        11.76197         1.61214
O         24.72641        12.91561        -2.57947
H         24.46695        12.07591        -3.02895
O         36.62904        29.53725        -0.99532
H         35.68691        29.63365        -1.28836
O         10.36601        36.00069        -0.87605
H          9.56384        36.58259        -0.83940
O         18.88483        12.61576        -2.55055
H         19.58810        12.21068        -3.14093
O         20.96917        53.25994         2.42245
H         21.00912        52.39435         2.88034
O         30.62135        40.21663         0.65608
H         29.71498        40.36579         1.00386
O         30.86213        45.81651         1.02303
H         30.94436        46.73236         1.36587
O         21.10902        10.76890         0.86430
H         20.30923        11.25816         1.19499
O         10.90949        24.71962        -1.74002
H         10.93244        25.67457        -1.96705
O          8.12114        37.56776        -0.02417
H          7.27022        37.08646        -0.09420
O         14.87698        43.87999        -0.19637
H         14.14334        44.52154        -0.08103
O         24.12339        15.96581         2.11219
H         23.60415        16.61845         2.63903
O         10.84383        27.62306         2.00974
H         11.07842        26.75247         2.39912
O         25.03691        20.53473         2.67890
H         25.64841        20.08805         3.30168
O          9.17996        29.91881        -1.32382
H          9.93046        30.40465        -1.72847
O         24.83574        31.68171         2.67394
H         25.21545        32.42663         3.19055
O         17.26820        31.01641         0.11334
H         16.42972        30.90112         0.61786
O         12.89766        37.81167        -1.60351
H         12.11402        37.25035        -1.80223
O         28.84372        30.10122         3.18444
H         29.05353        29.30886         3.72287
O         22.02943        33.38709         1.73810
H         22.29749        34.24545         2.14950
O         14.27024        44.45803         4.06085
H         15.24224        44.42966         4.22525
O         13.38029        33.81362         1.79334
H         12.77729        33.86776         2.57693
O         14.25030        31.38534         1.02063
H         14.04165        32.13524         1.63950
O         25.63874        49.80624         1.96004
H         26.55364        49.81509         2.33576
O         29.29256        39.19206        -2.65236
H         30.22553        38.99566        -2.94187
O         29.34111        30.76928        -0.39526
H         28.74909        30.02775        -0.64230
O         23.28682        50.50856        -1.70187
H         22.52729        50.00716        -2.06954
O         22.22787        47.35887         1.44825
H         22.40047        48.06307         2.10892
O         18.21277        24.24328        -2.15001
H         19.04776        23.72993        -2.36113
O         19.26839        27.13904         0.88779
H         18.49576        26.64265         1.23625
O         29.40721        20.68743         3.17564
H         30.34014        20.89529         3.43557
O         36.70642        30.75018         2.45752
H         36.64198        31.63015         2.88418
O         22.24760        25.00127        -2.29254
H         21.78186        24.12282        -2.46757
O         29.52595        25.42048        -0.10911
H         29.57931        24.48769        -0.40893
O         26.23225        26.81770         2.95133
H         25.93149        27.74035         3.14405
O         23.01753        58.26299        -2.15438
H         22.98357        59.08652        -2.68526
O         32.95413        33.30469         2.69051
H         32.12006        32.89148         3.03728
O         13.11531        24.50499         2.14009
H         14.02265        24.30838         2.48628
O         15.30075        26.69768        -2.38914
H         16.08757        26.85087        -2.95464
O         31.67572        27.47164         3.84940
H         32.64945        27.45922         4.08508
O         22.67195        46.92660        -2.10920
O         30.44488        32.04346         2.87670
H         29.60365        32.49934         3.14218
O         33.95386        29.39392        -0.84842
H         33.56576        28.51098        -1.05594
O         31.89820        39.22011        -2.64200
H         32.17487        40.10448        -3.00081
O         13.61751        31.28069        -2.57659
H         13.27625        30.42400        -2.92841
O         27.20222        42.22403         0.77763
H         26.50478        42.69824         1.27699
O         20.95156        31.00158         1.22037
H         21.15130        31.82023         1.73653
O         20.44247        37.40073        -3.55189
H         21.35683        37.36349        -3.95511
O         25.65039         3.60024         0.64382
H         25.34255         3.94120         1.50800
O         28.17168        33.50727         2.75793
H         27.28279        33.59195         3.18354
O         31.62624        35.81908         2.14923
H         30.77447        35.49432         2.51511
O         32.24704        21.01733        -1.05092
H         32.86826        20.71591        -1.74721
H          5.20185        31.22636         1.73707
H          5.27684        33.66907         2.06320
H          7.38280        26.96041         0.75551
H          6.26888        29.12261         1.23765
H          6.57300        35.78796         1.95379
H          7.87772        37.86686         2.04239
H          9.90882        22.54885        -0.15190
H          8.56650        24.81586        -0.03385
H          9.15598        39.98614         2.12677
H         10.54279        42.02403         2.44112
H         12.48423        18.37917        -0.79087
H         11.19759        20.45936        -0.40582
H         11.87776        44.00340         2.77034
H         13.07126        46.11345         2.42711
H         15.15267        14.06982        -1.77035
H         13.70406        16.52224        -1.48893
H         13.90485        48.26156         1.77800
H         14.99566        50.50554         1.43865
H         17.44845         9.77553        -0.62775
H         16.18427        11.90437        -0.85869
H         16.15595        52.72220         1.18404
H         17.32386        54.90627         0.95841
H         20.00495         5.60653        -0.39686
H         18.73783         7.64283        -0.64996
H         18.46704        57.06215         0.23482
H         19.67786        59.22223        -0.16941
H         23.32545         2.35379         0.37827
H         21.22136         3.56687         0.09821
H         23.02407        62.59357        -0.71038
H         20.90673        61.35739        -0.40988
H         25.02661         3.45977        -1.30659
H         26.73224         5.69001        -0.15972
H         26.53081        59.32056        -0.55084
H         25.21629        61.45688        -0.70769
H         27.94342         7.80740        -0.23654
H         29.19415         9.93765        -0.13363
H         29.10249        55.02153        -0.70613
H         27.81502        57.17920        -0.65255
H         30.42635        12.11020        -0.07924
H         31.61118        14.30510         0.01518
H         31.63575        50.76942        -0.97225
H         30.34557        52.94146        -0.76800
H         32.75894        16.46958         0.10563
H         33.90650        18.66826         0.05650
H         34.09719        46.45241        -1.25383
H         32.85848        48.62508        -1.13232
H         35.00672        21.00091        -0.16053
H         36.21752        23.04182         0.16661
H         36.48114        42.16469        -0.39318
H         35.29386        44.30538        -0.85752
H         37.75727        24.91699         1.13779
H         38.89527        26.98712         1.41459
H         38.87480        37.92106        -0.14623
H         37.66892        40.03575        -0.17991
H         40.09264        29.01971         0.81278
H         41.30383        31.08499         0.35680
H         41.33584        33.55159         0.13388
H         40.13605        35.66876        -0.01847
