         328
 CSIRO Nanostructure Databank - Neutral Graphene Oxide Data Set
C         30.77446        56.81938        -1.77651
C         30.82484        58.17476        -2.15939
C         29.70895        58.81946        -2.76258
C         30.91045        60.92557        -2.83986
C         29.76414        60.17003        -3.09667
C         32.74135        52.87761         0.53918
C         32.87277        54.27067        -0.03143
C         31.81175        54.84565        -0.70836
C         33.09231        56.92839        -0.95504
C         31.87798        56.19649        -1.15344
C         33.15077        58.31143        -1.33516
C         32.02014        58.93304        -1.91282
C         33.21405        61.08613        -1.96091
C         32.05216        60.33105        -2.24387
C         35.33754        48.58532         0.47275
C         35.29799        50.04025         0.60391
C         34.09277        50.75375         0.46781
C         35.24420        52.87030         0.87025
C         34.06454        52.14721         0.59478
C         35.10896        54.37678         1.09499
C         34.08347        54.99581         0.16371
C         35.54696        56.98332        -0.41755
C         34.20322        56.29852        -0.32454
C         35.47570        58.48866        -0.49369
C         34.32996        59.08903        -1.06302
C         35.53806        61.23422        -1.12572
C         34.34389        60.48960        -1.37295
C         37.87077        44.37753        -0.33535
C         37.78331        45.78137         0.22227
C         36.60920        46.46575         0.15972
C         37.79987        48.68123         0.35424
C         36.51386        47.89188         0.42174
C         37.73143        49.96401         1.17204
C         36.47711        50.76030         0.90412
C         37.70998        52.88421         1.40246
C         36.44608        52.15889         1.08641
C         37.73237        54.38225         1.36643
C         36.44804        55.13101         1.13574
C         37.76050        57.19644         0.67937
C         36.59440        56.48827         0.54605
C         37.81396        58.60889         0.31199
C         36.62366        59.25324        -0.21528
C         37.93274        61.43734        -0.44884
C         36.65158        60.64243        -0.56550
C         40.28209        40.03166        -0.08812
C         40.26648        41.44908         0.11470
C         39.08216        42.21068        -0.03992
C         40.31254        44.28430         0.34268
C         39.10916        43.60341         0.05196
C         40.32124        45.78937         0.19430
C         39.03833        46.40092         0.80660
C         40.23211        48.59237         0.83198
C         39.05794        47.90632         0.69041
C         40.19658        50.05559         0.92266
C         39.01252        50.72772         0.95099
C         40.17800        52.93890         0.58408
C         39.00972        52.18488         1.19111
C         40.19809        54.41473         0.91485
C         39.01968        55.08878         1.15652
C         40.25561        57.25068         0.85430
C         38.99285        56.59124         1.35347
C         40.23508        58.67544         0.68798
C         38.96828        59.34943         0.53432
C         40.24663        61.53526         0.53959
C         38.90110        60.85770         0.59738
C         42.75949        35.76869        -0.61270
C         42.71949        37.20110        -0.49711
C         41.51399        37.88982        -0.39167
C         42.72593        39.96751         0.10860
C         41.47846        39.29718        -0.13485
C         42.68695        41.34093         0.61304
C         41.46418        42.13539         0.46153
C         42.76634        44.24179         0.81190
C         41.49738        43.54667         0.58231
C         42.73933        45.69335         1.24490
C         41.53949        46.47376         0.77195
C         42.70988        48.59725         1.11877
C         41.51836        47.87685         0.94255
C         42.74340        50.06058         1.29666
C         41.43596        50.81679         1.21442
C         42.67486        52.92100         0.81812
C         41.48138        52.24917         0.89757
C         42.64787        54.32496         0.25560
C         41.43821        55.11229         0.71554
C         42.59803        57.25252         0.00379
C         41.42989        56.51222         0.62749
C         42.69849        58.64301         0.62282
C         41.43039        59.40153         0.61677
C         42.71594        61.53901         0.60076
C         41.45048        60.84673         0.59390
C         45.24169        32.99172        -0.73904
C         44.01354        33.65985        -0.72861
C         45.20440        35.83578        -1.13175
C         43.94831        35.07546        -0.78031
C         45.19852        37.26177        -0.63847
C         43.97620        37.92423        -0.42703
C         45.19459        40.07197        -0.12356
C         43.95808        39.31863        -0.08894
C         45.19166        41.44583         0.13007
C         44.01817        42.10995         0.68441
C         45.28325        44.28577         0.96652
C         43.96241        43.58519         0.73398
C         45.20671        45.77581         0.71556
C         44.02506        46.43190         0.95438
C         45.14733        48.66617         0.63427
C         44.02809        47.89818         1.30130
C         45.21700        50.13045         0.81551
C         43.97201        50.83783         1.04770
C         45.22865        52.98548         1.03604
C         43.92619        52.22106         0.95467
C         45.15502        54.43256         0.59454
C         43.96038        55.06822         0.38006
C         45.22995        57.25997         0.04090
C         43.93426        56.50098        -0.00272
C         45.24367        58.72778         0.25127
C         43.98538        59.40063         0.63810
C         45.18941        61.55770         0.54198
C         43.94943        60.88271         0.60237
C         46.45477        33.68702        -0.73888
C         47.66938        35.82374        -0.70658
C         46.48715        35.10370        -0.80236
C         47.68850        37.26217        -0.67516
C         46.42766        37.96618        -0.58437
C         47.65637        40.08412        -0.51058
C         46.43249        39.38542        -0.43305
C         47.66125        41.54062        -0.59257
C         46.33003        42.28322        -0.24789
C         47.63449        44.35111         0.09006
C         46.44499        43.65218         0.24030
C         47.65543        45.78972         0.30207
C         46.44764        46.47194         0.48768
C         47.67459        48.68469         0.32451
C         46.41434        47.93240         0.30073
C         47.65659        50.08918         0.44065
C         46.39760        50.79558         0.56049
C         47.67599        52.97343         0.59410
C         46.36762        52.28078         0.29617
C         47.66201        54.40575         0.64449
C         46.43664        55.12520         0.54022
C         47.68651        57.23649         0.35321
C         46.48060        56.53368         0.35603
C         47.71065        58.69038        -0.06493
C         46.42023        59.41362         0.26346
C         47.65292        61.53517         0.50199
C         46.42643        60.86441         0.45107
C         48.89056        37.97198        -0.62653
C         50.11779        40.13919        -0.58744
C         48.91264        39.39728        -0.56582
C         50.14517        41.55798        -0.49513
C         48.90654        42.28013        -0.42658
C         50.09777        44.41591        -0.27880
C         48.87475        43.67557        -0.24936
C         50.07903        45.82523        -0.12958
C         48.88772        46.51351         0.14582
C         50.10942        48.67407         0.37829
C         48.90077        47.96729         0.28784
C         50.12340        50.08863         0.55332
C         48.88317        50.81180         0.57814
C         50.09503        52.96537         1.06914
C         48.85663        52.24370         0.72312
C         50.13509        54.43143         0.87757
C         48.90436        55.12292         0.68822
C         50.15506        57.24558         0.60258
C         48.91300        56.54423         0.56701
C         50.14862        58.71089         0.60318
C         48.93925        59.41733         0.41861
C         50.12180        61.53725         0.69430
C         48.90716        60.83631         0.53745
C         51.35099        42.30139        -0.49927
C         52.57280        44.44437        -0.43818
C         51.35159        43.71049        -0.43304
C         52.61257        45.84771        -0.35654
C         51.32040        46.63588        -0.42765
C         52.61755        48.69884         0.12350
C         51.39321        47.88481         0.45081
C         52.60249        50.09998         0.30157
C         51.37422        50.77207         0.61589
C         52.65973        52.94525         0.80440
C         51.42752        52.18429         0.98623
C         52.64364        54.39642         1.24077
C         51.35876        55.12610         0.87042
C         52.64257        57.30405         0.53621
C         51.36203        56.53264         0.70132
C         52.63140        58.70484         1.17216
C         51.33865        59.42273         0.84340
C         52.59984        61.54322         0.71480
C         51.34833        60.84515         0.78266
C         53.80572        46.57228        -0.32135
C         55.01568        48.74500        -0.30636
C         53.82364        48.00702        -0.18322
C         55.03483        50.15186        -0.11030
C         53.81930        50.84406         0.19741
C         55.09557        52.95296         0.40504
C         53.84308        52.26613         0.44224
C         55.15066        54.37345         0.77939
C         53.89719        55.14524         0.85333
C         55.14561        57.24528         0.54927
C         53.91839        56.52036         0.76632
C         55.14811        58.74530         0.70834
C         53.77680        59.35874         0.38142
C         54.99186        61.54309         0.16738
C         53.79864        60.86915         0.45136
C         56.24091        50.88428        -0.22798
C         57.49415        53.00195        -0.25428
C         56.28806        52.27701         0.01020
C         57.55782        54.40067        -0.19057
C         56.43792        55.13374         0.43491
C         57.47198        57.29159        -0.26980
C         56.34334        56.58974         0.25103
C         57.41360        58.71884        -0.42524
C         56.26277        59.43410        -0.03566
C         57.30652        61.53684        -0.72371
C         56.19464        60.84853        -0.19668
C         58.64372        55.14365        -0.68736
C         59.72337        57.28625        -1.25105
C         58.63180        56.56913        -0.71687
C         59.69658        58.69803        -1.38159
C         58.52690        59.41956        -0.98140
C         59.60494        61.51853        -1.65810
C         58.47542        60.84120        -1.11891
C         60.79690        59.41839        -1.91448
C         60.73895        60.80790        -2.04451
O         46.77713        42.08971        -1.62452
O         37.00037        55.01126         2.50139
O         50.73989        52.48259         2.29037
O         45.42524        48.30466        -0.75116
O         52.69840        57.67548        -0.90719
O         56.15205        54.69996         1.80307
O         44.66116        56.80682        -1.25488
O         43.42322        41.49982         1.87380
O         42.01545        50.48587         2.52237
O         38.53097        52.44190         2.55747
O         51.18667        47.10665        -1.79965
H         51.14847        46.32235        -2.38587
O         42.21169        57.43662        -1.38637
H         43.05256        57.48511        -1.90449
O         42.43448        54.14995        -1.19923
H         42.47114        55.04588        -1.60575
O         47.81939        58.67355        -1.53144
H         47.90595        59.60364        -1.82984
O         52.66118        54.37438         2.70988
H         51.93839        53.75901         2.98981
O         37.94394        49.09492        -1.03841
H         38.30429        48.33844        -1.54689
O         42.63897        45.65302         2.73278
H         41.71458        45.40156         2.95471
O         53.44105        58.97394        -0.99483
O         39.06827        46.06821         2.22578
H         38.40855        46.63437         2.68089
O         38.55230        61.44574        -1.73979
H         39.46773        61.78099        -1.63366
O         37.91956        44.50865        -1.78211
H         37.12389        45.00361        -2.06953
O         38.92207        56.87805         2.78635
H         38.18404        56.32250         3.13816
O         46.10067        52.43255        -1.12586
H         46.73073        51.86861        -1.62099
O         51.53917        47.42067         1.82717
H         51.59205        48.20876         2.40768
O         38.30616        61.19120         1.89229
H         38.85265        60.76945         2.58884
O         43.44066        58.76397         1.87902
O         34.50287        54.51616         2.41339
H         35.24505        54.50690         3.06287
O         31.76186        52.12040        -0.17518
H         32.05132        52.04533        -1.10731
O         45.56350        44.15678         2.39820
H         44.79769        44.54291         2.87910
O         40.29676        46.08015        -1.23555
H         39.62143        45.48930        -1.65051
O         44.30929        47.95196         2.73771
H         43.65887        47.35054         3.17317
O         37.72285        49.61256         2.58395
H         37.89611        50.44608         3.08114
O         45.60374        52.99396         2.44141
H         44.82337        53.25908         2.97147
O         52.79739        58.70223         2.58250
H         53.76513        58.67527         2.78515
O         39.96395        52.84922        -0.85594
H         40.76467        53.25202        -1.28172
O         55.40465        59.00941         2.13868
H         56.21915        58.52171         2.38716
O         45.18501        35.93352        -2.60404
H         46.00588        36.39814        -2.87399
O         36.05955        56.56052        -1.74411
H         35.49842        56.99171        -2.42403
H         29.85223        56.24279        -1.94207
H         28.79569        58.23888        -2.95672
H         30.93470        61.99419        -3.09727
H         28.89118        60.65095        -3.56028
H         32.36459        52.97246         1.59450
H         30.88783        54.26852        -0.86081
H         33.23494        62.15789        -2.20866
H         34.37711        48.04983         0.40654
H         33.15345        50.21767         0.26626
H         35.56930        62.29525        -1.41481
H         36.94696        43.79202        -0.06440
H         35.69530        45.94044        -0.17007
H         37.68892        62.49725        -0.14482
H         39.32933        39.51891        -0.28572
H         38.14312        41.70161        -0.30316
H         40.25488        62.63630         0.56872
H         41.81969        35.20880        -0.48533
H         40.56491        37.34228        -0.48851
H         42.70055        62.63919         0.57434
H         45.25450        31.89417        -0.67715
H         43.08240        33.08583        -0.61134
H         45.20216        62.65741         0.57976
H         47.40072        33.13482        -0.63585
H         48.62449        35.28624        -0.59922
H         47.66216        62.62937         0.61479
H         49.84340        37.42337        -0.65876
H         51.07184        39.59657        -0.66060
H         50.11592        62.63688         0.70399
H         52.31070        41.76825        -0.56921
H         53.52073        43.88445        -0.46466
H         52.59425        62.64379         0.72863
H         54.76686        46.04010        -0.39463
H         55.95627        48.22613        -0.54288
H         54.99331        62.64360         0.15099
H         57.16201        50.35727        -0.51761
H         58.35825        52.44515        -0.64675
H         57.26084        62.62926        -0.84406
H         59.50993        54.61284        -1.10976
H         60.61308        56.73423        -1.58960
H         59.57373        62.61192        -1.76825
H         61.69905        58.87218        -2.22493
H         61.60173        61.34822        -2.45938
