         480
 CSIRO Nanostructure Databank - Neutral Graphene Oxide Data Set
C         37.71673        50.11588         0.53125
C         36.51988        50.79650         0.66920
C         37.71991        52.80756         1.26529
C         36.52026        52.15308         1.03875
C         40.24604        48.66033         0.25267
C         40.21507        50.05741         0.63888
C         38.96168        50.76214         0.75412
C         40.22073        52.81988         1.35342
C         38.96021        52.13707         1.13114
C         40.26046        54.17289         1.75618
C         42.68519        48.49273         0.74974
C         41.38240        47.93393         0.25343
C         42.69173        50.00912         0.78468
C         41.43552        50.72016         0.87135
C         42.69710        52.80589         1.34681
C         41.45228        52.12275         1.18281
C         42.69240        54.16646         1.72057
C         41.46830        54.82530         1.94015
C         45.06198        45.93629        -0.77532
C         43.89231        46.56795        -0.41037
C         45.10655        48.60664         0.09747
C         43.90889        47.89922         0.07700
C         45.18057        49.87619         0.90586
C         43.89453        50.67461         0.90987
C         45.19522        52.70998         1.39621
C         43.95276        52.09063         1.19271
C         45.28937        54.19491         1.55397
C         43.96401        54.92480         1.81941
C         45.07199        57.07112         1.44245
C         43.92237        56.36914         1.57342
C         47.58981        44.57088        -1.44281
C         47.54244        45.97557        -1.03809
C         46.30324        46.62135        -0.72980
C         47.53698        48.74236        -0.40801
C         46.31976        47.99699        -0.35067
C         47.37614        50.24607        -0.43678
C         46.42818        50.69795         0.67612
C         47.42067        53.27510        -0.55553
C         46.41328        51.93570         1.29994
C         47.52042        54.51843         0.26183
C         46.39794        55.02732         1.00349
C         47.51325        57.23315         1.02272
C         46.34397        56.42375         1.21891
C         47.51026        58.61909         1.34646
C         49.99837        44.55544        -0.90947
C         48.74148        43.87745        -1.40984
C         49.99785        45.99924        -1.39690
C         48.73546        46.69063        -0.94908
C         49.98925        48.83245        -0.79742
C         48.74509        48.09186        -0.68502
C         49.90427        50.29115        -1.01439
C         48.66905        51.05691        -0.65971
C         49.88029        53.25710        -1.00570
C         48.66298        52.43147        -0.70875
C         49.86597        54.72655        -0.60875
C         48.68669        55.27936         0.11436
C         49.93349        57.39895         0.55837
C         48.72169        56.63199         0.57065
C         49.89418        58.77279         0.90468
C         48.66011        59.37059         1.26221
C         52.51975        41.76414        -1.46510
C         51.31590        42.45689        -1.33360
C         52.49932        44.59259        -1.29844
C         51.29115        43.85038        -1.25485
C         52.47089        46.03765        -1.19551
C         51.27122        46.73556        -1.06237
C         52.47584        48.91816        -0.88745
C         51.22193        48.16977        -0.94309
C         52.47020        50.32067        -0.89763
C         51.23774        51.05281        -1.22988
C         52.50777        53.33651        -1.08336
C         51.20964        52.56784        -1.24996
C         52.51333        54.79364        -0.68835
C         51.18284        55.48257        -0.47098
C         52.38871        57.40406         0.58258
C         51.18590        56.76691         0.26042
C         52.34519        58.78031         1.03284
C         51.12024        59.54226         0.92928
C         52.23465        61.73258         0.46682
C         51.09334        60.92243         0.67647
C         55.03086        40.27113        -1.57486
C         54.98596        41.67592        -1.40754
C         53.74361        42.43846        -1.42959
C         54.98108        44.56843        -1.20896
C         53.75207        43.87970        -1.33048
C         55.07516        46.03325        -1.26313
C         53.72773        46.80746        -1.27105
C         54.96954        48.88612        -0.62680
C         53.72321        48.21731        -0.89414
C         54.98377        50.28261        -0.52190
C         53.76414        51.03246        -0.88990
C         55.05437        53.31031        -0.66444
C         53.78633        52.53915        -0.99588
C         54.96623        54.70512        -0.12288
C         53.74619        55.38108        -0.06334
C         54.81891        57.31891         1.03207
C         53.65681        56.70306         0.51609
C         54.76815        58.68602         1.53332
C         53.50296        59.36374         1.53509
C         54.77017        61.86856         0.58315
C         53.46257        61.45686         1.05466
C         54.91370        62.65328        -0.58725
C         57.43902        40.22653        -1.18276
C         56.23090        39.57784        -1.52255
C         57.38770        41.61878        -0.93378
C         56.19876        42.34639        -1.14264
C         57.50696        44.55294        -0.71920
C         56.22786        43.81789        -1.17075
C         57.40817        45.95985        -0.30628
C         56.24586        46.73715        -0.66305
C         57.28029        48.76386         0.41653
C         56.17473        48.10124        -0.38451
C         57.45371        50.25703         0.14470
C         56.14459        51.04129         0.08098
C         57.49290        53.20567         0.15195
C         56.28396        52.49532        -0.38273
C         57.31914        54.55417         0.72187
C         56.13768        55.27005         0.53886
C         57.21790        57.26168         1.59191
C         56.05587        56.61748         1.08963
C         57.20616        58.63558         2.20191
C         55.90275        59.31898         1.99900
C         57.22870        61.49214         0.56766
C         55.96003        61.37060         1.17083
C         57.33985        62.31826        -0.58202
C         56.16397        62.90190        -1.12101
C         60.12583        37.79968        -2.23695
C         58.86975        38.31527        -1.92092
C         59.92249        40.19387        -0.81256
C         58.73890        39.54758        -1.25225
C         59.83883        41.47539        -0.10126
C         58.52128        42.28504        -0.27093
C         59.73557        44.35108         0.35987
C         58.60167        43.73326        -0.17822
C         59.74262        45.77921         0.52826
C         58.54782        46.55249         0.27633
C         59.77080        48.61151         0.72827
C         58.56749        47.97538         0.45985
C         59.86485        50.06131         0.60244
C         58.65795        50.88073         0.33787
C         59.75691        53.04543         1.27177
C         58.72109        52.40154         0.40697
C         59.59450        54.34661         1.96703
C         58.27007        55.07350         1.78843
C         59.65313        57.28809         1.89334
C         58.43565        56.57366         1.71312
C         59.70586        58.68868         1.83558
C         58.44733        59.46612         1.84187
C         59.75998        61.24383         0.56113
C         58.45066        60.83833         1.12488
C         59.80895        62.17790        -0.52399
C         58.64574        62.62005        -1.14809
C         59.89128        64.03758        -2.70938
C         58.73789        63.43469        -2.35394
C         62.75649        36.63185        -2.86749
C         62.65793        38.05877        -2.40533
C         61.29882        38.47230        -1.87791
C         62.40330        40.31729        -0.61680
C         61.20312        39.66397        -1.11771
C         62.31414        41.57066         0.05306
C         61.04963        42.23241         0.18744
C         62.13335        44.27328         0.99744
C         60.95951        43.59584         0.57611
C         62.14187        45.66840         1.18272
C         60.93861        46.42348         0.92363
C         62.20202        48.47617         1.28990
C         60.98151        47.84981         0.95890
C         62.42367        49.92456         0.98016
C         61.14109        50.55600         0.53818
C         62.12097        52.99408         1.94196
C         61.04344        52.65636         1.06412
C         62.17944        54.39532         2.27244
C         60.87310        55.10757         2.27006
C         62.12105        57.34037         2.53228
C         60.97769        56.56028         1.84398
C         62.19893        58.72402         1.89149
C         60.96799        59.38130         1.66706
C         62.20617        61.50294         1.00573
C         60.94272        60.67964         1.05379
C         62.34130        62.31007        -0.27198
C         61.14859        62.47252        -1.18421
C         62.36687        64.56997        -2.11879
C         61.09735        63.82844        -1.87685
C         62.52949        65.55890        -3.21949
C         65.07949        36.45670        -2.12430
C         63.91339        35.92703        -2.78032
C         64.97164        37.70614        -1.46373
C         63.78023        38.44290        -1.46921
C         64.82625        40.26228        -0.12787
C         63.66671        39.66820        -0.73298
C         64.71256        41.52202         0.52684
C         63.47813        42.16882         0.61743
C         64.63669        44.27515         1.26063
C         63.34272        43.46032         1.40569
C         64.56989        45.64531         1.88391
C         63.32084        46.34690         1.66681
C         64.32701        48.41047         2.64783
C         63.30515        47.74634         1.76071
C         64.39233        49.94843         2.57893
C         63.16336        50.64816         2.11557
C         64.81094        52.97272         2.63608
C         62.98109        51.98623         2.45505
C         64.61254        54.31799         2.11677
C         63.37154        55.07839         2.41942
C         64.74688        57.23574         2.10738
C         63.44710        56.55897         2.49223
C         64.74422        58.68057         1.73669
C         63.45855        59.38483         1.62102
C         64.73067        61.53391         1.23532
C         63.46589        60.71446         1.23005
C         64.73184        62.62726         0.18662
C         63.57282        62.90176        -0.57359
C         64.87002        64.79664        -1.75002
C         63.64740        63.95396        -1.62881
C         64.69162        66.23275        -2.21443
C         63.63460        66.31476        -3.29596
C         67.61782        33.62911        -2.41172
C         66.41945        34.32846        -2.46076
C         67.47678        36.32655        -1.57676
C         66.32675        35.70089        -2.06114
C         67.43530        37.82113        -1.35317
C         66.14503        38.16838        -0.62311
C         67.28486        40.23612         0.21351
C         66.09928        39.61908        -0.21072
C         67.24327        41.49921         0.90303
C         65.91408        42.08030         1.19855
C         67.08282        44.23529         2.00371
C         65.84170        43.49121         1.71503
C         67.02899        45.58017         2.33287
C         65.72905        46.26187         2.33214
C         66.99051        48.45249         2.65520
C         65.69033        47.69993         2.69915
C         66.92946        49.83808         2.02475
C         65.75739        50.68762         2.51920
C         67.01980        52.76073         1.67749
C         65.82462        52.13976         2.21007
C         67.08834        54.15912         1.54000
C         65.86226        54.97833         1.58267
C         67.15501        57.06147         1.48332
C         65.94166        56.44634         1.67825
C         67.26029        58.54712         1.73693
C         65.95296        59.30367         1.49137
C         67.21430        61.37857         0.97462
C         66.01738        60.72322         1.18141
C         67.27382        62.81609         0.59603
C         65.94431        63.44084         0.09494
C         67.24027        65.14653        -1.18687
C         66.05957        64.51036        -0.91484
C         67.30589        66.14919        -2.32415
C         66.00854        66.88100        -2.57542
C         67.24020        68.82429        -3.39105
C         66.03193        68.13146        -3.14537
C         70.13720        32.11733        -2.12978
C         70.06680        33.50925        -1.85671
C         68.79793        34.19326        -1.88423
C         69.99385        36.31453        -1.06159
C         68.70411        35.56345        -1.37198
C         69.97287        37.83320        -1.16021
C         68.66227        38.41347        -0.70509
C         69.79181        40.29961         0.41092
C         68.58307        39.61029        -0.02696
C         69.69429        41.55046         1.08375
C         68.39661        42.14826         1.31795
C         69.56584        44.17312         2.31873
C         68.30138        43.36934         2.21745
C         69.48423        45.49357         2.82573
C         68.26517        46.31429         2.68018
C         69.44455        48.59667         2.87679
C         68.28632        47.70746         2.66916
C         69.45831        49.94399         2.36448
C         68.23788        50.59996         1.96908
C         69.45530        52.63953         1.23276
C         68.21595        51.94767         1.59954
C         69.46579        54.09059         1.02946
C         68.32416        54.84482         1.24656
C         69.55751        56.96344         0.87165
C         68.34785        56.30194         1.18143
C         69.60120        58.42119         0.78622
C         68.46546        59.16627         1.06902
C         69.77865        61.32600         0.65086
C         68.50018        60.63868         1.06287
C         69.72727        62.72077         0.16439
C         68.52517        63.42115         0.09844
C         69.68440        65.35275        -0.91675
C         68.49479        64.69441        -0.60825
C         69.70396        66.57889        -1.68623
C         68.50340        67.07185        -2.25190
C         69.70138        69.09577        -3.04967
C         68.47429        68.32729        -2.91790
C         69.71764        70.36544        -3.67286
C         72.54301        32.14192        -1.91189
C         71.34691        31.44450        -2.15569
C         72.50808        33.50080        -1.63847
C         71.28845        34.21836        -1.59905
C         72.42666        36.41685        -1.18465
C         71.28340        35.64381        -1.33147
C         72.37530        37.74513        -0.66540
C         71.18850        38.43438        -0.50562
C         72.22033        40.38451         0.63428
C         71.06938        39.71185         0.17095
C         72.12208        41.59120         1.30881
C         70.87599        42.20102         1.54801
C         71.96499        44.11151         2.74405
C         70.80633        43.50303         2.21497
C         71.85631        45.29201         3.46883
C         70.62575        45.95387         3.51358
C         71.64945        49.05320         3.91056
C         70.53631        48.23060         3.68573
C         71.72663        50.27811         3.26668
C         70.65681        50.72483         2.47094
C         71.88918        52.93949         1.98069
C         70.77549        51.99231         1.73519
C         71.89058        54.18727         1.48551
C         70.77004        54.70706         0.59725
C         71.90137        56.86674         0.18814
C         70.73725        56.21597         0.57352
C         71.95696        58.26456         0.09218
C         70.84493        59.06100         0.37070
C         72.03050        61.14459        -0.30927
C         70.92495        60.49588         0.22408
C         72.07952        62.55533        -0.44192
C         70.95937        63.33781        -0.22746
C         72.20015        65.47512        -0.81725
C         70.95404        64.84857        -0.26628
C         72.16610        66.64649        -1.49394
C         70.92935        67.27455        -1.89783
C         72.12106        69.30615        -2.72849
C         70.92851        68.54933        -2.56435
C         72.10639        70.54477        -3.34429
C         70.89646        71.07990        -3.82082
O         44.87857        54.58190         2.91229
O         70.51350        47.03406         4.40116
O         70.34800        51.88805         0.33919
O         66.34833        48.16333         3.93683
O         64.85812        54.42847         0.64733
O         58.85450        41.56960         0.97333
O         61.34465        51.81271        -0.01498
O         52.69274        54.38928        -2.07600
O         60.03935        54.58741         3.35541
O         50.46909        50.54863        -2.35199
O         64.59678        63.73796        -2.72732
O         50.40203        53.06000        -2.34815
O         55.86750        60.66308         2.39361
O         50.35537        55.58801        -1.67548
O         53.41240        60.60383         2.19225
O         63.81596        52.48839         3.49212
O         53.94382        51.75715        -2.21016
O         54.52824        46.59000        -2.49016
O         69.24665        35.74442         0.02683
O         57.22738        44.32933        -2.14290
O         46.38169        53.03753        -1.17147
O         64.38060        57.02015         3.53273
O         58.50517        60.71211         2.58541
O         69.42394        61.19331         2.08492
O         61.46220        64.97163        -1.03539
O         66.51514        63.76038         1.42794
O         65.09893        50.40431         3.77245
O         58.59486        53.11721        -0.86636
O         56.03065        52.97591        -1.71752
O         65.64064        42.36648         2.63230
O         63.74429        48.15676         3.96368
H         64.39506        48.50777         4.61569
O         45.31632        49.39907         2.30173
H         44.51665        48.84268         2.48860
O         66.13669        37.39472         0.60899
H         65.34566        37.65220         1.12652
O         63.16385        43.14957         2.80898
H         62.35021        42.61193         2.90080
O         42.80903        48.07711         2.16984
H         42.03136        48.44055         2.64566
O         46.59385        50.43498        -1.65546
H         46.38910        51.40376        -1.74459
O         67.53352        65.32228        -3.53181
H         67.58239        65.93402        -4.29714
O         55.73262        51.21239         1.48867
H         55.85871        50.32470         1.91749
O         64.72002        62.19234         2.55654
H         65.41791        62.90073         2.51491
O         66.60400        49.52865         0.62495
H         66.72954        50.34066         0.08887
O         64.18771        66.93535        -1.03881
H         64.01077        67.86608        -1.28862
O         62.84862        38.88397        -3.61996
H         63.76227        38.72003        -3.93827
O         70.89200        65.26915         1.14530
H         70.78940        66.24421         1.15539
O         47.57444        52.51255         1.76134
H         48.28196        51.83783         1.76861
O         71.06509        54.27338        -0.76228
H         70.98243        53.28805        -0.76196
O         57.32268        58.42995         3.65021
H         57.46975        59.31925         4.04334
O         49.96261        45.94446        -2.85281
H         49.96478        46.86418        -3.19296
O         62.05269        62.45924         2.10649
H         62.94833        62.59605         2.50893
O         67.53120        58.68248         3.17083
H         67.78491        59.61535         3.34204
O         64.85833        44.49035        -0.16522
H         64.17154        45.10999        -0.49219
O         68.14242        42.81768         3.57730
H         67.22273        42.45029         3.61790
O         49.94466        44.59794         0.54560
H         49.87528        43.67736         0.87345
O         61.30923        61.49779        -2.26654
H         61.34370        60.60261        -1.86864
O         57.52174        54.82334         3.02393
H         58.14703        54.99651         3.76571
O         67.35772        38.41822        -2.68381
H         68.25890        38.32391        -3.08159
O         70.08750        38.12286        -2.61142
H         70.45069        39.02995        -2.70193
O         61.76197        57.50325         3.91401
H         62.58823        57.70460         4.40761
O         61.37389        56.49485         0.44037
H         60.68075        56.02231        -0.06781
O         63.32279        49.96435        -0.17685
H         63.15768        50.82018        -0.63266
O         56.76176        48.72312         1.82556
H         57.53741        48.80408         2.42279
H         37.68640        49.05638         0.24549
H         35.56837        50.27670         0.49088
H         37.69298        53.86764         1.55007
H         35.56970        52.69335         1.14673
H         39.31445        48.17473        -0.06818
H         39.33217        54.72958         1.93652
H         41.33148        46.87438        -0.03146
H         41.45769        55.87069         2.27582
H         45.02369        44.88259        -1.08104
H         42.95609        45.99551        -0.43678
H         45.01073        58.16165         1.33425
H         42.95720        56.89082         1.53077
H         46.66447        44.07617        -1.76959
H         46.59323        59.10264         1.70523
H         48.74867        42.81754        -1.70076
H         48.63455        60.43164         1.54562
H         52.48796        40.66961        -1.53611
H         50.38331        41.87926        -1.28264
H         52.13665        62.59345        -0.21171
H         50.12430        61.35445         0.38256
H         54.11385        39.70927        -1.79525
H         54.02350        63.07786        -1.07102
H         56.22085        38.49536        -1.70853
H         56.22944        63.55381        -2.00019
H         60.17488        36.86634        -2.81337
H         57.97791        37.77620        -2.26710
H         59.93001        64.70929        -3.57891
H         57.84063        63.59136        -2.96698
H         61.91187        36.19924        -3.42191
H         61.73376        65.65822        -3.97362
H         63.95842        34.92204        -3.22366
H         63.75933        67.03593        -4.11822
H         67.63022        32.59753        -2.79006
H         65.52955        33.81188        -2.84401
H         67.18311        69.80086        -3.88716
H         65.08478        68.63123        -3.40309
H         69.21220        31.55152        -2.30511
H         68.78594        70.80638        -4.05144
H         73.50353        31.60893        -1.92825
H         71.37187        30.36536        -2.36028
H         73.45275        34.02363        -1.43633
H         73.41993        35.97071        -1.33192
H         73.32470        38.18441        -0.32792
H         73.21634        39.95670         0.46029
H         73.05011        42.07059         1.64474
H         72.94180        43.61539         2.68779
H         72.71680        45.70292         4.01196
H         72.45698        48.70419         4.56573
H         72.62935        50.88990         3.38647
H         72.72806        52.61571         2.61338
H         72.74460        54.85118         1.69006
H         72.79175        56.27646        -0.06799
H         72.90683        58.72514        -0.20847
H         72.91531        60.57443        -0.62211
H         73.02264        63.01212        -0.77151
H         73.17079        65.05076        -0.52303
H         73.11775        67.11176        -1.78606
H         73.07683        68.91759        -2.35320
H         73.03961        71.11367        -3.45683
H         70.88526        72.06450        -4.30812
