         404
 CSIRO Nanostructure Databank - Neutral Graphene Oxide Data Set
C          1.19069         2.13888        -0.14098
C          1.19648         3.56898        -0.08739
C          2.33325         1.42591        -0.34873
C          2.33495         4.32993        -0.25968
C          1.44759         6.25571         1.19066
C          1.52276         7.58897         1.57954
C          2.33449         5.73070         0.21018
C          2.59306         8.43692         1.18115
C          1.57280        10.57735         2.07171
C          1.57730        11.94088         2.20149
C          2.65292         9.85962         1.42777
C          2.61981        12.75642         1.65123
C          1.59260        14.95011         2.34662
C          1.51534        16.29543         2.22429
C          2.64645        14.15034         1.72157
C          2.47509        17.04653         1.32685
C          2.67377        18.51638         1.65026
C          3.56001         2.10215        -0.77205
C          3.56078         3.65288        -0.78721
C          4.84381         1.39419        -0.63460
C          4.92055         4.25768        -0.66582
C          3.28822         6.64159        -0.25828
C          3.60986         7.86935         0.35773
C          5.07370         5.64254        -0.79556
C          4.89385         8.51507         0.17691
C          3.75716        10.57637         0.95919
C          3.66062        12.07169         0.79284
C          4.94094         9.89439         0.50177
C          4.99775        12.76554         0.77442
C          3.81306        14.86393         1.24868
C          3.80969        16.33141         1.34543
C          4.98347        14.20748         0.85706
C          5.01872        17.09524         0.89852
C          3.75510        19.19530         1.23199
C          4.85106        18.52451         0.42182
C          6.06143         2.04246        -0.49979
C          6.09411         3.50440        -0.43682
C          7.29626         1.31712        -0.48435
C          7.30701         4.19359        -0.20015
C          6.18439         6.37711        -0.34293
C          6.13501         7.81544        -0.11272
C          7.36421         5.61293        -0.11456
C          7.36966         8.49511         0.03008
C          6.17005        10.61749         0.39377
C          6.15203        12.05208         0.49769
C          7.40306         9.92733         0.20789
C          7.40742        12.75909         0.16925
C          6.15974        14.96611         0.47669
C          6.16758        16.33437         0.40764
C          7.39486        14.24172         0.09660
C          7.34749        17.06485        -0.19487
C          6.19278        19.21717         0.43545
C          7.36109        18.55097         0.14317
C          8.53280         1.95779        -0.32113
C          8.52457         3.39738         0.03123
C          9.76839         1.29201        -0.43723
C          9.84712         4.13911         0.05393
C          8.61662         6.32066         0.00429
C          8.62119         7.75833         0.00350
C          9.82905         5.60755        -0.05775
C          9.85816         8.43156         0.04364
C          8.64644        10.63472         0.27675
C          8.68761        12.04358         0.35728
C          9.94772         9.93709        -0.01851
C          9.88847        12.77925         0.50650
C          8.66911        14.97778         0.26712
C          8.62843        16.35009         0.20680
C          9.89896        14.21618         0.43526
C          9.83522        17.14908         0.42450
C          8.60902        19.24851         0.04298
C          9.84833        18.58292         0.04379
C         11.02254         1.97702        -0.45232
C         11.06405         3.40367        -0.31160
C         12.23676         1.28829        -0.67998
C         12.26139         4.11699        -0.49663
C         11.06164         6.28880        -0.18144
C         11.07374         7.71259        -0.06429
C         12.27393         5.55333        -0.38109
C         12.33420         8.38799         0.04939
C         11.14384        10.52171         0.74686
C         11.13716        12.05734         0.89433
C         12.39562         9.71274         0.60553
C         12.39690        12.85935         0.89164
C         11.11951        14.91898         0.41733
C         11.15152        16.38758         0.46922
C         12.37444        14.23536         0.47109
C         12.36828        17.10684         0.07580
C         11.08199        19.21784        -0.16540
C         12.33146        18.51141        -0.18008
C         13.47309         1.97319        -0.78683
C         13.48613         3.41379        -0.72463
C         14.70210         1.28521        -0.92070
C         14.70794         4.12358        -0.82702
C         13.49950         6.24862        -0.45304
C         13.52924         7.65157        -0.16267
C         14.72423         5.54736        -0.67234
C         14.79134         8.28344        -0.00285
C         13.62511        10.11428         1.11786
C         13.62403        12.36230         1.31808
C         14.85885         9.51524         0.69900
C         14.86383        12.99149         0.99190
C         13.57730        14.96038         0.27976
C         13.57306        16.38190        -0.02753
C         14.82489        14.28549         0.39971
C         14.77511        17.06320        -0.33770
C         13.54622        19.16773        -0.49311
C         14.77254        18.47026        -0.55125
C         15.93773         1.97465        -0.99088
C         15.94384         3.42027        -0.98528
C         17.17109         1.28780        -1.00186
C         17.16122         4.12880        -1.08562
C         15.95874         6.25057        -0.68898
C         16.00706         7.63470        -0.34906
C         17.17867         5.56975        -0.96601
C         17.24288         8.34528        -0.31011
C         16.12702        10.10362         0.89837
C         16.11502        12.32244         1.10220
C         17.29967         9.69433         0.20211
C         17.29381        12.79232         0.52200
C         16.05512        14.91443         0.07353
C         16.04684        16.32442        -0.39985
C         17.24622        14.18398         0.14573
C         17.33748        17.12804        -0.42099
C         16.01303        19.17232        -0.79097
C         17.27559        18.61354        -0.64086
C         18.40370         1.98414        -1.02781
C         18.40144         3.42141        -1.13371
C         19.64385         1.31125        -0.94836
C         19.62084         4.13345        -1.23096
C         18.37654         6.30236        -1.04882
C         18.42988         7.68660        -0.73821
C         19.58326         5.59897        -1.59558
C         19.65543         8.43813        -0.81130
C         18.48287        10.50274         0.03378
C         18.50180        11.95635         0.28619
C         19.66512         9.83790        -0.49900
C         19.69196        12.64982         0.07037
C         18.49610        14.93497         0.24382
C         18.54473        16.40313         0.04977
C         19.78096        14.10423         0.29152
C         19.73662        17.00781         0.32312
C         18.44331        19.40346        -0.97463
C         19.74227        19.17816        -0.49657
C         20.85906         2.02308        -0.97909
C         20.84510         3.45448        -1.15091
C         22.10880         1.36840        -0.85876
C         22.08764         4.17426        -1.26966
C         20.87780         6.33198        -1.36969
C         20.86287         7.77362        -1.22773
C         22.06319         5.61077        -1.42533
C         22.06527         8.50151        -1.36590
C         20.89276        10.54943        -0.72800
C         20.84920        12.01865        -0.59596
C         22.09440         9.90521        -1.10820
C         22.10468        12.80364        -0.82533
C         21.00984        14.84628         0.06558
C         21.00801        16.31901        -0.07500
C         22.25257        14.14517        -0.17935
C         22.31506        17.00116         0.22679
C         20.98430        19.66340        -0.96607
C         22.23625        19.15696        -0.50177
C         23.32170         2.07041        -0.95698
C         23.31421         3.49780        -1.21131
C         24.54587         1.38167        -0.76625
C         24.56500         4.20940        -1.42164
C         23.31751         6.29142        -1.79359
C         23.26493         7.81321        -1.88563
C         24.60189         5.56232        -1.68478
C         24.56636         8.55930        -1.95910
C         23.37134        10.62876        -1.28233
C         23.35341        12.11668        -1.28350
C         24.55880         9.99952        -1.57892
C         24.65286        12.91238        -1.31603
C         23.51842        14.95145        -0.32247
C         23.49673        16.43225        -0.17162
C         24.69159        14.32097        -0.90291
C         24.71316        17.18332        -0.44343
C         23.49675        19.37112        -1.04229
C         24.70050        18.60934        -0.73210
C         25.78809         2.02130        -0.90838
C         25.81648         3.40583        -1.43116
C         26.99076         1.36079        -0.64759
C         27.15726         4.14369        -1.42685
C         25.91028         6.23807        -2.12833
C         25.86013         7.78177        -2.04419
C         27.14534         5.61884        -1.47167
C         27.07238         8.53256        -1.55532
C         25.83772        10.75905        -1.76923
C         25.91603        12.17972        -1.37960
C         27.14132        10.00340        -1.88941
C         27.12942        12.84300        -1.12372
C         25.90900        15.00247        -0.79857
C         25.91677        16.45704        -0.60654
C         27.11467        14.25798        -0.85839
C         27.16244        17.14657        -0.71838
C         25.92886        19.25484        -0.92986
C         27.17369        18.57773        -0.82417
C         28.23971         2.04978        -0.58116
C         28.30949         3.45284        -0.83542
C         29.39834         1.35878        -0.16881
C         29.50036         4.16891        -0.56325
C         28.28955         6.30551        -1.13754
C         28.29271         7.79595        -1.10722
C         29.52622         5.61795        -0.77542
C         29.57857         8.53497        -1.01138
C         28.48638        10.73317        -1.77234
C         28.39135        12.13164        -1.17331
C         29.61010         9.92554        -1.15504
C         29.59910        12.77748        -0.92418
C         28.35266        14.97061        -0.52057
C         28.39041        16.43662        -0.68139
C         29.64827        14.20665        -0.55117
C         29.62374        17.10883        -0.73226
C         28.41252        19.25185        -0.87229
C         29.63584        18.54897        -0.82024
C         30.60860         2.02903         0.10117
C         30.62325         3.45933        -0.05924
C         31.78349         1.23031         0.36705
C         31.90314         4.18148        -0.00072
C         30.70812         6.36109        -0.62785
C         30.75964         7.80309        -0.69928
C         31.98551         5.66650        -0.40622
C         31.99270         8.50552        -0.51146
C         30.82817        10.63235        -0.94236
C         30.84224        12.07413        -0.93316
C         32.00372         9.91071        -0.63093
C         32.07464        12.79704        -0.84065
C         30.89923        14.96339        -0.75991
C         30.87473        16.38309        -0.75580
C         32.10572        14.25318        -0.88823
C         32.10491        17.08864        -0.86373
C         30.87888        19.23173        -0.85323
C         32.10634        18.54292        -0.87000
C         32.91838         1.71392         1.04800
C         32.95809         3.77900         0.89700
C         34.26396         1.33689         1.03105
C         34.24709         4.33975         0.89503
C         33.19063         6.40529         0.01426
C         33.21534         7.80061        -0.14445
C         34.34609         5.70969         0.46955
C         34.46148         8.47408         0.02290
C         33.23115        10.67956        -0.36029
C         33.27634        12.09681        -0.74537
C         34.49852         9.94599        -0.04791
C         34.55658        12.78083        -0.88062
C         33.34701        14.96150        -0.94999
C         33.32191        16.37876        -0.96896
C         34.60255        14.24763        -0.88296
C         34.58007        17.11344        -1.20168
C         33.33435        19.23893        -0.85694
C         34.58780        18.57714        -0.94822
C         35.35261         2.15830         1.53219
C         35.35704         3.62637         1.45212
C         36.53914         1.49921         1.85418
C         36.56043         4.36470         1.64975
C         35.57495         6.40058         0.65994
C         35.62946         7.78966         0.36452
C         36.69389         5.71736         1.24524
C         36.97820         8.46552         0.30416
C         35.79883        10.62662        -0.09649
C         35.87273        12.02931        -0.49852
C         36.93467         9.97646         0.35261
C         37.03809        12.81985        -0.10733
C         35.83878        14.89416        -0.78051
C         35.89598        16.32936        -1.12092
C         37.04331        14.22054        -0.33785
C         37.17507        17.06479        -0.89583
C         35.77422        19.26709        -0.75446
C         37.09574        18.64161        -0.75713
C         37.67054         2.18336         2.46551
C         37.68413         3.73036         2.34924
C         38.97574         1.52917         2.62688
C         38.98234         4.41025         2.40661
C         37.92133         6.45334         1.50157
C         38.01919         7.82338         1.18721
C         39.06062         5.79031         2.07357
C         39.18734         8.55792         1.50473
C         38.09283        10.73029         0.68248
C         38.14261        12.13866         0.48956
C         39.17380        10.03715         1.40567
C         39.36018        12.88016         0.74346
C         38.23108        14.96971        -0.02648
C         38.29298        16.38147        -0.23950
C         39.39649        14.28474         0.46740
C         39.43355        17.13402         0.13888
C         38.19996        19.27555        -0.06958
C         39.38229        18.58146         0.19974
C         40.09636         2.25029         2.89085
C         40.12760         3.69639         2.80871
C         41.34493         4.40867         2.98382
C         40.28780         6.49451         2.26707
C         40.33863         7.90703         2.00227
C         41.41303         5.76585         2.75114
C         41.57812         8.64970         2.09502
C         40.46605        10.80690         1.65163
C         40.53484        12.21611         1.18776
C         41.66778         9.98346         1.85173
C         41.73686        12.93440         1.28094
C         40.60674        15.01140         0.68683
C         40.61270        16.46315         0.59706
C         41.77026        14.30272         1.04414
C         41.72008        17.21945         1.00852
C         40.52552        19.29600         0.67617
C         41.67479        18.62567         1.03875
O         26.46459        10.43997        -3.08948
O         13.68154        11.16537         2.03646
O         10.89757        11.13183         2.02813
O         39.46341        10.65185         2.71433
O          3.38855         2.88830        -2.01092
O         16.19247        11.13607         1.83640
O         32.64067         2.86287         1.87399
O          4.01798         6.32517        -1.40805
O         37.52198        17.94001        -1.97914
O         19.11915        14.57027         1.53633
O         10.50662        16.90863         1.69868
O          9.20173         3.66923         1.30204
O         23.08397         7.00087        -3.08104
O          4.75394        16.88193         2.32448
O         35.43785        12.19453        -1.89569
O         23.20290        14.18960         0.96644
O         25.26237         8.33491        -3.23707
O         37.30589         3.05794         3.58757
O          7.31342        13.46284        -1.15361
O         35.28018        16.66083        -2.40213
O         28.99158        14.49846         0.73407
O         26.61499         3.51274        -2.64120
O         22.23218        18.32163         0.64852
O         16.82002        16.47313        -1.64934
O         33.68309        10.52775         1.06791
O         32.34474         4.60704        -1.34016
O         23.81323        12.69115        -2.54611
O         27.28881         8.31578        -0.11934
O         21.09814        12.77600        -1.88213
O         19.79891        18.35106         0.64517
O         28.95091        10.93836        -3.14509
H         28.14530        11.09816        -3.69218
O         19.40296         5.62966        -3.06437
H         20.25283         5.35673        -3.47248
O         10.26684        10.26270        -1.42074
H          9.52094         9.95528        -1.97842
O         20.95989        16.54392        -1.58948
H         20.25236        15.96688        -1.95669
O          3.15259        12.24609        -0.59350
H          3.84861        11.91832        -1.20310
O         37.46296         8.19344        -1.06735
H         37.47361         7.22031        -1.19163
O         26.04817         5.93130        -3.53489
H         25.40776         6.51050        -4.01123
O          1.96333        16.94418        -0.03000
H          1.10489        17.41331        -0.06979
O          7.24522        16.98569        -1.64632
H          7.11288        16.04333        -1.88703
O          4.41519        18.44168        -0.96457
H          4.52556        19.32375        -1.37503
H          0.25931         1.61706         0.12120
H          0.26798         4.06384         0.23197
H          2.35513         0.33725        -0.19365
H          0.65221         5.62172         1.60748
H          0.75082         7.98140         2.25584
H          0.73494        10.00428         2.49238
H          0.75290        12.42286         2.74644
H          0.82634        14.42534         2.93685
H          0.68915        16.84373         2.70430
H          1.88133        19.03803         2.21212
H          4.81723         0.29376        -0.59871
H          3.84926        20.27097         1.45405
H          7.26958         0.23161        -0.66316
H          6.22973        20.30035         0.63879
H          9.76682         0.20698        -0.62246
H          8.59431        20.34903         0.00097
H         12.22396         0.19138        -0.76462
H         11.09160        20.29303        -0.39979
H         14.70288         0.18490        -0.93209
H         13.53634        20.25203        -0.67794
H         17.17682         0.18840        -0.95798
H         15.94218        20.24555        -1.02585
H         19.66184         0.21545        -0.85442
H         18.27867        20.25392        -1.65503
H         22.13221         0.28171        -0.69029
H         20.99339        20.32424        -1.84452
H         24.51964         0.31809        -0.48703
H         23.61556        20.17827        -1.78197
H         26.96328         0.30195        -0.35112
H         25.93410        20.33246        -1.15185
H         29.34685         0.26863        -0.03570
H         28.42697        20.34944        -0.94717
H         31.78132         0.19295         0.00137
H         30.88236        20.33177        -0.88149
H         34.52837         0.34600         0.63370
H         33.32381        20.33570        -0.76980
H         36.60880         0.41251         1.69723
H         35.72257        20.32573        -0.45623
H         39.02596         0.43351         2.54077
H         38.10158        20.32491         0.24638
H         41.05136         1.73165         3.06292
H         42.23924         3.86397         3.31907
H         42.36493         6.28380         2.92779
H         42.50658         8.09496         2.28833
H         42.65922        10.45651         1.81436
H         42.66006        12.42760         1.59243
H         42.72524        14.82951         1.16657
H         42.63795        16.72304         1.34932
H         40.48069        20.39321         0.72454
H         42.55631        19.18539         1.38076
