         420
 CSIRO Nanostructure Databank - Neutral Graphene Oxide Data Set
C         28.03186        27.35778         1.33611
C         28.00226        28.79675         1.28814
C         26.74573        29.51551         1.14504
C         27.88180        31.70861         1.22272
C         26.67716        30.86931         1.08538
C         27.90851        33.14935         0.81796
C         26.71898        33.86309         0.58162
C         27.94227        35.97579         0.50652
C         26.73766        35.24247         0.43205
C         27.95023        37.42811         0.45585
C         26.75134        38.17626         0.44603
C         27.97564        40.28889         0.45408
C         26.76198        39.55953         0.43520
C         27.98379        41.75040         0.31887
C         26.76010        42.47191         0.18639
C         27.95921        44.52656        -0.30684
C         26.74609        43.81835        -0.09572
C         27.96782        45.90424        -0.65232
C         30.48575        27.32920         1.34466
C         29.22703        26.66874         1.34352
C         30.50748        28.81789         1.58144
C         29.19629        29.49352         1.28765
C         30.38572        31.64210         0.66168
C         29.19406        30.95971         1.29177
C         30.39988        33.11218         1.03517
C         29.13069        33.85596         0.82773
C         30.42838        35.99028         0.60841
C         29.16669        35.26708         0.66226
C         30.43490        37.40798         0.48352
C         29.18450        38.13335         0.46881
C         30.46700        40.26205         0.61197
C         29.18171        39.55476         0.48835
C         30.47983        41.78018         0.46109
C         29.19385        42.45835         0.20292
C         30.42191        44.54848        -0.37201
C         29.19927        43.84148        -0.15278
C         30.40491        45.87304        -0.83402
C         29.15181        46.54828        -0.92823
C         33.00101        24.55838         1.43032
C         31.80389        25.22697         1.47324
C         32.95170        27.37686         1.08436
C         31.72408        26.64624         1.30424
C         32.94491        28.79889         0.91512
C         31.72594        29.53684         1.03369
C         32.90799        31.65535         0.58590
C         31.69868        30.91626         0.84472
C         32.91153        33.06826         0.52427
C         31.69973        33.84054         0.87096
C         32.88715        35.96284         0.40514
C         31.66413        35.29032         0.61115
C         32.90128        37.38735         0.31184
C         31.67872        38.11089         0.37043
C         32.91973        40.25071         0.14714
C         31.71784        39.54198         0.34805
C         32.93631        41.70542        -0.01634
C         31.74149        42.42255         0.06868
C         33.00230        44.59257        -0.47138
C         31.71235        43.88331        -0.09870
C         32.90150        45.88025        -1.18272
C         31.63468        46.50416        -1.33084
C         32.65108        48.17030        -2.77527
C         31.53764        47.67377        -2.11308
C         35.58915        23.08834         1.00501
C         35.43161        24.48587         0.82680
C         34.22116        25.24468         1.14681
C         35.42735        27.39354         0.75613
C         34.17244        26.64427         0.97054
C         35.38525        28.83333         0.45505
C         34.15125        29.51362         0.56557
C         35.34078        31.63464         0.12152
C         34.13395        30.93293         0.41611
C         35.33442        33.07431         0.09531
C         34.11992        33.78521         0.29552
C         35.35038        35.92235         0.27424
C         34.12042        35.22253         0.31311
C         35.36422        37.36807         0.24619
C         34.14281        38.09252         0.21107
C         35.37510        40.21060        -0.12408
C         34.14516        39.51764         0.07042
C         35.38725        41.61093        -0.42376
C         34.16997        42.37186        -0.38914
C         35.37583        44.41440        -1.15207
C         34.21046        43.76988        -0.69715
C         35.39365        45.80454        -1.53246
C         34.07790        46.43318        -1.75914
C         35.85670        48.69954        -2.56643
C         33.88920        47.54400        -2.60660
C         35.87919        50.10128        -2.64380
C         37.61527        23.01527        -0.35979
C         36.70692        22.39418         0.52471
C         37.33435        24.35635        -0.63363
C         36.45721        25.15713         0.11125
C         37.83819        27.38537        -0.18907
C         36.64683        26.61296         0.27733
C         37.81398        28.78613        -0.14212
C         36.57142        29.51850         0.07247
C         37.74557        31.66623        -0.63279
C         36.54388        30.91771        -0.10057
C         37.81099        33.08895        -0.13074
C         36.57296        33.79367         0.05890
C         37.84818        35.89708         0.55978
C         36.56765        35.19121         0.23585
C         37.82672        37.36437         0.23254
C         36.60475        38.07094         0.18789
C         37.82305        40.21165        -0.09850
C         36.60788        39.50315        -0.01625
C         37.83851        41.56362        -0.51102
C         36.61923        42.24265        -0.72337
C         37.86822        44.40369        -1.01568
C         36.63469        43.60735        -1.35746
C         37.83613        45.77868        -1.18823
C         36.64219        46.49975        -1.58417
C         37.89035        48.70712        -1.31252
C         36.78182        47.95371        -1.80344
C         37.92600        50.13184        -1.33488
C         36.85892        50.81699        -1.97526
C         40.09502        20.26134        -0.61132
C         38.92567        20.90725        -0.77919
C         40.18231        23.10754        -0.90625
C         38.82001        22.37776        -1.09536
C         40.29506        24.53564        -0.77845
C         39.20122        25.42970        -0.89765
C         40.34588        27.36448         0.05996
C         39.09506        26.68821        -0.31047
C         40.32624        28.84663        -0.17911
C         39.02887        29.53961        -0.36814
C         40.30154        31.65913        -0.52878
C         39.04913        30.91789        -0.48438
C         40.26443        33.06142        -0.40218
C         39.04358        33.76957        -0.12751
C         40.29977        35.90517         0.09102
C         39.09431        35.18764         0.09659
C         40.26720        37.33546         0.23124
C         39.06311        38.04630         0.21287
C         40.35073        40.19102        -0.07832
C         39.07685        39.54443         0.39739
C         40.32063        41.55638        -0.50510
C         39.11727        42.25200        -0.68871
C         40.32365        44.39224        -0.72915
C         39.12409        43.68648        -0.84600
C         40.25687        45.83353        -0.32000
C         39.12617        46.50897        -1.06102
C         40.30106        48.69187        -0.44334
C         39.14600        48.00520        -1.02462
C         40.13955        50.11911        -0.01256
C         39.05142        50.84991        -0.77838
C         40.22380        52.95583        -0.33137
C         39.11423        52.25489        -0.79397
C         42.57069        20.26237        -0.50425
C         41.37289        20.94975        -0.68426
C         42.71294        23.04960        -1.13287
C         41.37724        22.37086        -0.86380
C         42.73565        24.47183        -0.64907
C         41.55781        25.14784        -0.45869
C         42.75168        27.28420        -0.80242
C         41.65195        26.57856         0.05124
C         42.81770        28.76386        -0.57034
C         41.53261        29.50014        -0.82463
C         42.80966        31.60819        -0.49318
C         41.56701        30.97156        -0.56440
C         42.83281        33.07112        -0.63183
C         41.50442        33.82814        -0.57175
C         42.78996        35.87475        -0.02832
C         41.56398        35.23626        -0.15230
C         42.82096        37.30084         0.35383
C         41.53150        38.07118         0.41032
C         42.82350        40.18654        -0.01354
C         41.55127        39.51503         0.08723
C         42.85636        41.56649        -0.30735
C         41.61323        42.20729        -0.75977
C         42.85907        44.48293        -0.60116
C         41.61515        43.74448        -0.88202
C         42.78400        45.89593        -0.48866
C         41.55963        46.58651        -0.45800
C         42.74851        48.74796        -0.05059
C         41.52020        48.01622        -0.33345
C         42.69423        50.17495         0.12197
C         41.45773        50.86075         0.01135
C         42.64846        52.98984         0.21076
C         41.43712        52.27236        -0.00451
C         43.82775        20.92549        -0.46226
C         45.21675        22.99331        -0.62270
C         43.94392        22.27927        -0.69369
C         45.22077        24.42259        -0.51808
C         44.00508        25.16760        -0.52952
C         45.24087        27.27619        -0.26705
C         44.03705        26.56374        -0.51963
C         45.25198        28.71198        -0.15250
C         44.01443        29.43211        -0.31571
C         45.28235        31.55893        -0.20523
C         44.03997        30.88566        -0.31240
C         45.31514        33.02404        -0.40952
C         44.06854        33.80127        -0.35289
C         45.30879        35.89771         0.04189
C         44.05857        35.17915        -0.17693
C         45.28764        37.33924         0.18204
C         44.08042        38.04650         0.19189
C         45.26920        40.20300         0.20993
C         44.05107        39.47338         0.16545
C         45.25110        41.61201         0.10174
C         44.06598        42.30590        -0.21539
C         45.26548        44.47667        -0.12118
C         44.08397        43.77181        -0.37944
C         45.34955        45.91971        -0.29493
C         44.02851        46.68255        -0.48438
C         45.20809        48.79037         0.20127
C         43.98733        48.09690        -0.08175
C         45.16454        50.19499         0.41259
C         43.90936        50.90365         0.31017
C         43.84071        52.32326         0.38667
C         47.67058        23.07036        -0.69350
C         46.46374        22.34859        -0.66547
C         47.69435        24.46305        -0.57392
C         46.44472        25.13988        -0.39526
C         47.68797        27.17647         0.34633
C         46.42864        26.53646        -0.15040
C         47.65045        28.68045         0.37875
C         46.48855        29.40726         0.11164
C         47.70131        31.58950         0.37807
C         46.49620        30.87201         0.07683
C         47.77238        32.99399         0.30381
C         46.61033        33.77181        -0.15855
C         47.73096        35.89427         0.53234
C         46.52641        35.21710         0.13092
C         47.72021        37.34756         0.60751
C         46.51888        38.05755         0.34430
C         47.71983        40.17581         0.59955
C         46.51239        39.48150         0.38999
C         47.67095        41.64878         0.89099
C         46.55838        42.36179         0.12397
C         47.72117        44.52684         0.52067
C         46.39229        43.80434         0.62582
C         47.71809        45.94481         0.48835
C         46.51233        46.66399         0.22434
C         47.66008        48.79044         0.66321
C         46.46105        48.07322         0.33586
C         47.57531        50.19852         0.83785
C         46.38033        50.87302         0.71937
C         49.99940        24.78448        -1.51423
C         48.88055        25.29699        -0.80549
C         49.97668        27.50588        -0.75053
C         48.87316        26.65639        -0.45397
C         50.05115        28.84300        -0.23213
C         48.96906        29.30968         0.74018
C         50.20945        31.57069         0.99928
C         48.89666        30.84093         0.86369
C         50.14836        33.06168         0.98424
C         48.94080        33.73353         0.68528
C         50.03229        35.85954         1.53247
C         48.89939        35.17302         0.78727
C         50.08850        37.36538         1.40075
C         48.89291        38.06729         0.91120
C         50.18453        40.20295         0.89622
C         48.92184        39.47943         0.83230
C         50.15614        41.63909         0.66810
C         48.97887        42.36216         0.64985
C         50.16720        44.54352         0.61564
C         48.94728        43.81314         0.56672
C         50.17236        45.94920         0.78026
C         48.93775        46.66798         0.69741
C         50.14972        48.75857         1.00646
C         48.91111        48.08719         0.78823
C         51.05141        25.60442        -1.86125
C         52.18464        27.84071        -1.80274
C         51.07995        26.97592        -1.48798
C         52.23383        29.13207        -1.24531
C         51.20830        29.60644        -0.36514
C         52.71049        31.58902         0.22906
C         51.51367        30.71594         0.67942
C         53.01030        32.77334         0.90023
C         51.25167        33.80516         1.47821
C         52.65018        35.87264         1.23630
C         51.38193        35.19211         1.34625
C         52.66575        37.29782         1.23482
C         51.41172        38.08636         1.37486
C         52.66105        40.23207         0.96019
C         51.39684        39.52602         1.01381
C         52.68696        41.59512         0.74038
C         51.44136        42.32006         0.44616
C         52.69876        44.52986         0.86078
C         51.45069        43.83997         0.45828
C         52.64691        45.93666         1.13078
C         51.40789        46.65496         1.00493
C         51.33981        48.06955         1.12166
C         54.41863        28.06827        -2.83245
C         53.31398        27.33257        -2.56122
C         54.47351        29.49360        -2.49309
C         53.33278        30.03929        -1.62837
C         54.78781        31.98145        -1.03189
C         53.60289        31.23178        -0.81206
C         54.94780        33.27092        -0.42174
C         53.92712        33.76180         0.44821
C         55.05134        35.91937         0.61116
C         53.87211        35.16145         0.83628
C         55.10274        37.32723         0.91766
C         53.87719        38.03844         1.08474
C         55.13734        40.16443         1.08696
C         53.90239        39.47172         1.06618
C         55.16672        41.61556         1.09719
C         53.97723        42.35485         0.53720
C         55.08147        44.47413         1.40102
C         53.88689        43.80720         0.97903
C         55.03100        45.87789         1.65212
C         53.85985        46.58367         1.51226
C         55.76095        30.19377        -2.42341
C         55.86426        31.39799        -1.80819
C         56.09134        34.09230        -0.63999
C         56.16911        35.33149        -0.05871
C         56.32556        38.04081         0.97265
C         56.34377        39.41378         1.11173
C         56.27690        42.33288         1.52070
C         56.26246        43.73625         1.62044
O         42.16479        33.55129        -1.85700
O         36.46508        26.98312         1.70370
O         52.29230        33.08319         2.05780
O         30.54195        41.14300         1.78662
O         50.65577        37.92285         2.64633
O         46.18741        33.43146        -1.52944
O         53.38816        30.29478        -3.07385
O         41.71847        42.86625        -2.05735
O         49.41504        31.20874         2.17929
O         34.94133        48.03829        -3.38919
O         51.82773        29.97175         1.81815
O         40.36842        28.31219         1.18135
O         44.90798        46.40314        -1.61380
O         51.53225        43.09733        -0.82061
O         32.52656        44.59756         0.91326
O         39.54300        47.20252        -2.25191
O         31.15414        33.46708         2.21519
O         28.62774        31.54598         2.49450
O         38.08732        24.99653        -1.63619
O         42.19946        37.65087         1.66383
O         47.02313        42.43029        -1.24726
H         46.33383        42.87429        -1.78563
O         49.41153        28.78389         2.01960
H         50.33640        29.17763         2.16999
O         45.96002        43.86375         2.01221
H         46.50361        43.21960         2.52782
O         37.50969        31.79132        -2.09074
H         38.30056        32.22691        -2.47532
O         42.12025        26.47892         1.40752
H         41.73668        27.23572         1.90885
O         42.42189        27.02298        -2.20050
H         41.90295        27.79783        -2.53810
O         37.92429        35.84807         2.04778
H         38.71072        36.37242         2.31364
O         42.82428        23.11687        -2.60435
H         42.11988        23.72104        -2.92319
O         47.39661        41.71414         2.33168
H         48.07323        41.17095         2.78955
O         39.06733        39.75717         1.85830
H         39.88862        39.35738         2.21863
O         30.67207        28.95623         3.04932
H         29.81648        28.71879         3.46654
O         49.67538        35.59087         2.93043
H         50.15941        36.25931         3.47016
O         47.84826        26.69507         1.71813
H         48.54063        27.27483         2.13680
O         30.11090        31.59030        -0.77997
H         30.94264        31.79064        -1.25941
O         54.18084        42.39136        -0.92209
H         53.33205        42.72862        -1.30552
O         41.21749        29.39032        -2.28292
H         41.78633        30.03950        -2.75152
O         38.51797        22.45792        -2.51544
H         38.37064        23.40965        -2.72348
O         39.88493        45.87931         1.09769
H         40.60407        45.46672         1.62017
O         39.66697        50.06927         1.39754
H         39.62244        50.99534         1.71857
O         36.72220        43.34780        -2.81264
H         36.86587        44.21228        -3.25468
H         27.08091        26.80673         1.32501
H         25.82640        28.91934         1.04490
H         25.70738        31.35102         0.89284
H         25.75512        33.33690         0.55369
H         25.78345        35.76242         0.27616
H         25.78057        37.66374         0.45266
H         25.79814        40.08396         0.42074
H         25.80085        41.95428         0.31427
H         25.79048        44.35418        -0.18727
H         27.01349        46.44516        -0.72460
H         29.19528        25.57054         1.30200
H         29.11790        47.60846        -1.21052
H         33.01557        23.47026         1.58135
H         30.88748        24.65749         1.67862
H         32.56979        49.03606        -3.44451
H         30.57197        48.17124        -2.26332
H         34.84824        22.53284         1.59675
H         35.11473        50.61741        -3.23886
H         36.83389        21.33738         0.79937
H         36.83965        51.91326        -2.01950
H         40.10606        19.17644        -0.42521
H         37.98604        20.33504        -0.77150
H         40.21851        54.05484        -0.34369
H         38.27278        52.83823        -1.19341
H         42.54085        19.17773        -0.32418
H         42.62388        54.08909         0.21611
H         44.71511        20.33351        -0.19410
H         44.75465        52.91102         0.54415
H         48.61006        22.51305        -0.81742
H         46.50801        21.25376        -0.75556
H         48.47665        50.77279         1.09030
H         46.37528        51.95841         0.88446
H         50.01503        23.72779        -1.81512
H         50.17325        49.85395         1.08144
H         51.88561        25.16740        -2.42492
H         52.25973        48.64709         1.28438
H         55.29689        27.60302        -3.30427
H         53.30703        26.27860        -2.86898
H         55.95003        46.39298         1.96735
H         53.86243        47.66171         1.72109
H         56.64223        29.72513        -2.88574
H         56.83713        31.90824        -1.81778
H         56.92590        33.73859        -1.25876
H         57.06892        35.93701        -0.22931
H         57.28045        37.50033         0.92819
H         57.31037        39.93327         1.15398
H         57.18300        41.80209         1.84665
H         57.16512        44.26204         1.96299
