         720
 CSIRO Nanostructure Databank - Neutral Graphene Oxide Data Set
C         22.99229        27.41242         0.45821
C         23.03584        28.76547         0.65369
C         23.14179        31.66119         0.17994
C         23.14763        33.04242         0.20483
C         23.12097        36.03150         0.53194
C         23.13759        37.40614         0.76348
C         22.95752        40.29831         1.13469
C         22.96917        41.62835         0.82631
C         22.90285        44.60841         0.66810
C         22.90604        45.97079         0.45794
C         25.41547        24.55200         0.03968
C         24.28101        25.23705         0.24590
C         25.45957        27.43702        -0.07868
C         24.13008        26.67714        -0.19802
C         25.50716        28.68009         0.79536
C         24.25803        29.49904         0.60159
C         25.51797        31.62803         0.78744
C         24.30763        30.92300         0.53062
C         25.51866        33.03963         0.82331
C         24.30793        33.74884         0.57767
C         25.50658        35.87235         1.39449
C         24.22741        35.17662         0.94528
C         25.52161        37.38118         1.64711
C         24.21744        38.09229         1.31048
C         25.45616        40.30395         1.54011
C         24.12006        39.55348         1.74030
C         25.40745        41.78981         1.24823
C         24.13549        42.44814         0.89783
C         25.31157        44.55433         0.25692
C         24.11513        43.85631         0.61688
C         25.32631        45.94751         0.02321
C         24.10586        46.67275         0.16341
C         25.27656        48.78753        -0.18796
C         24.11045        48.09236         0.01654
C         28.01052        22.98788        -0.11542
C         27.97508        24.43925        -0.40001
C         26.67549        25.20052        -0.42291
C         28.01465        27.32658         0.16708
C         26.73994        26.69491        -0.25762
C         27.99345        28.76191         0.48742
C         26.80066        29.44192         0.65471
C         28.01835        31.65489         0.87036
C         26.76702        30.86713         1.17103
C         28.00751        33.01926         0.89189
C         26.76788        33.77931         0.99193
C         28.00701        35.95034         1.04356
C         26.78233        35.16341         1.13893
C         27.98842        37.32182         1.02958
C         26.66909        38.06644         0.88643
C         27.90561        40.29238         0.69105
C         26.72949        39.55502         1.23155
C         27.86769        41.62923         0.44679
C         26.66671        42.45263         0.73738
C         27.80235        44.51954        -0.28257
C         26.54209        43.77173         0.04505
C         27.75612        45.98119        -0.43078
C         26.55630        46.67115        -0.30345
C         27.74205        48.87390        -0.42826
C         26.54241        48.12966        -0.33507
C         27.80542        50.28811        -0.14273
C         30.44239        23.01348        -0.31533
C         29.18278        22.31927        -0.09740
C         30.42993        24.46322        -0.15167
C         29.24728        25.17718        -0.15177
C         30.45986        27.33184         0.37747
C         29.19058        26.60533         0.14017
C         30.43813        28.81394         0.25443
C         29.25611        29.47477         0.53105
C         30.50123        31.66583         0.39881
C         29.32848        30.91108         0.99626
C         30.49291        33.02865         0.37380
C         29.30439        33.74802         0.89329
C         30.51419        35.97590         0.47612
C         29.31485        35.23760         0.96663
C         30.48630        37.35662         0.45346
C         29.25948        38.07849         0.89773
C         30.31352        40.11593        -0.19616
C         29.20662        39.56335         0.68594
C         30.33434        41.63933        -0.27573
C         29.12859        42.38378         0.20522
C         30.36258        44.59436        -0.32095
C         29.11183        43.86511         0.01564
C         30.29577        45.99049        -0.54035
C         29.01409        46.65669        -0.78383
C         30.27900        48.93929        -0.66086
C         29.00448        48.22146        -0.79781
C         30.21722        50.41864        -0.71108
C         28.94047        51.02581        -0.28467
C         32.79164        20.24339        -1.22115
C         31.68123        20.91741        -0.82238
C         32.76935        23.18446        -1.18840
C         31.61545        22.34998        -0.65997
C         32.93603        24.49793        -0.47184
C         31.75761        25.05923         0.28055
C         32.96761        27.31791        -0.08490
C         31.75771        26.58792         0.35956
C         32.81512        28.72723        -0.47917
C         31.64988        29.52899        -0.03546
C         32.83733        31.67959        -0.46067
C         31.67266        30.93043        -0.06161
C         32.88652        33.07635        -0.45167
C         31.57842        33.81853        -0.32789
C         32.90697        35.94119        -0.13110
C         31.70091        35.26572         0.08176
C         32.95329        37.38493        -0.01081
C         31.69954        38.10614         0.18307
C         32.90467        40.29357         0.32527
C         31.65280        39.48704         0.09673
C         32.89322        41.72366        -0.21866
C         31.60341        42.41727        -0.42652
C         32.82708        44.61810        -0.50182
C         31.57319        43.89286        -0.30755
C         32.82460        46.06055        -0.17684
C         31.49678        46.79823        -0.29730
C         32.74687        48.93907        -0.48549
C         31.51226        48.26452        -0.54520
C         32.80486        50.40068        -0.70425
C         31.51943        51.18536        -0.76319
C         32.76718        53.28747        -0.23452
C         31.61474        52.63925        -0.47615
C         35.30502        18.75079        -0.75170
C         35.39546        20.08382        -1.45268
C         34.08889        20.91237        -1.47999
C         35.35398        23.11536        -1.03039
C         34.09162        22.41207        -1.36957
C         35.36881        24.46809        -0.78419
C         34.12232        25.18459        -0.53630
C         35.34214        27.38202        -0.70499
C         34.13117        26.63882        -0.39820
C         35.31305        28.73436        -0.89479
C         34.02333        29.45061        -1.02527
C         35.26881        31.64733        -1.17242
C         33.93139        30.96987        -1.20900
C         35.34529        33.16109        -1.31846
C         34.08491        33.83010        -0.72533
C         35.38041        35.95082        -0.58201
C         34.11096        35.21555        -0.51006
C         35.39363        37.41890        -0.50063
C         34.13255        38.10055        -0.25534
C         35.31617        40.25933        -0.18424
C         34.15360        39.54624        -0.10613
C         35.30612        41.70493         0.14075
C         34.05762        42.42752        -0.17934
C         35.37389        44.64007        -0.03340
C         34.15794        43.88595        -0.42316
C         35.31159        46.09716        -0.00993
C         34.10052        46.77989        -0.20518
C         35.29225        48.99007         0.12035
C         33.97408        48.23446        -0.03340
C         35.33393        50.42186        -0.15491
C         34.07473        51.14940        -0.43537
C         35.36420        53.27784        -0.37356
C         34.07109        52.58341         0.05541
C         35.40458        54.71546        -0.55938
C         37.74440        18.72474        -0.45224
C         36.43119        18.09535        -0.40408
C         37.76612        20.17636        -0.60795
C         36.59695        20.85382        -0.92073
C         37.91936        23.05455        -0.71682
C         36.55727        22.30774        -0.74940
C         37.91817        24.51000        -0.91213
C         36.65321        25.19197        -0.58123
C         37.91398        27.41979        -0.99305
C         36.66165        26.70499        -0.60447
C         37.90158        28.84706        -1.08472
C         36.57588        29.54330        -0.77762
C         38.23975        31.87055        -1.34435
C         36.31903        30.84706        -1.48291
C         37.98427        33.16245        -0.88809
C         36.59078        33.73088        -0.56929
C         37.86644        35.96040        -0.60791
C         36.56961        35.25246        -0.60904
C         37.88297        37.47922        -0.62413
C         36.57832        38.14591        -0.54692
C         37.84884        40.37784        -0.17330
C         36.59849        39.65327        -0.66508
C         37.85237        41.72327         0.09439
C         36.57758        42.46325         0.27621
C         37.81218        44.62388         0.42626
C         36.57814        43.95036         0.19845
C         37.69232        46.07332         0.86069
C         36.53200        46.83389         0.23123
C         37.77133        48.98977         0.05985
C         36.55413        48.22857         0.14272
C         37.77652        50.36153        -0.19436
C         36.52999        51.09866        -0.27088
C         37.86412        53.26353        -0.49687
C         36.52821        52.54264        -0.45452
C         37.77143        54.59491        -1.23537
C         36.52193        55.35037        -0.98636
C         40.13439        15.88429        -0.19914
C         38.95567        16.57160        -0.22196
C         40.18933        18.74572         0.12713
C         38.91481        18.01071        -0.23460
C         40.24303        20.12919        -0.45198
C         39.05684        20.86728        -0.61020
C         40.35579        22.94290        -1.24662
C         39.10904        22.24942        -0.91984
C         40.36562        24.46556        -1.26994
C         39.08810        25.22573        -1.11333
C         40.39126        27.35926        -1.36809
C         39.09596        26.66534        -1.18569
C         40.44375        28.88635        -1.34963
C         39.13158        29.57652        -1.03414
C         40.40654        31.57945        -0.11613
C         39.23682        31.00187        -0.86697
C         40.42870        33.10054        -0.15060
C         39.25099        33.92699        -0.66610
C         40.32508        36.01612         0.15901
C         39.01268        35.23451         0.07910
C         40.39519        37.44389        -0.38364
C         39.09566        38.18143        -0.19574
C         40.34383        40.33844         0.25181
C         39.15842        39.67212        -0.40981
C         40.28726        41.76308         0.43191
C         39.08751        42.47395         0.30278
C         40.28604        44.63861         0.66907
C         39.04771        43.92351         0.47933
C         40.29077        46.09894         0.88675
C         38.99772        46.86198         0.83189
C         40.31172        48.88960        -0.07676
C         39.03950        48.30268         0.40129
C         40.20386        50.17181        -0.77947
C         39.01033        51.03828        -0.58274
C         40.27376        53.02916        -1.50305
C         39.03505        52.37796        -0.88126
C         40.32813        54.54310        -1.34446
C         39.06215        55.29588        -1.57578
C         40.33594        57.40740        -1.52556
C         39.15066        56.77751        -1.54020
C         42.62511        15.82966        -0.24841
C         41.41536        16.56422        -0.18720
C         42.71768        18.64749        -0.05846
C         41.45897        17.96521        -0.12174
C         42.75245        20.05925        -0.13758
C         41.55350        20.74192        -0.63681
C         42.85039        22.99287        -0.63282
C         41.65422        22.22237        -1.00364
C         42.81768        24.41178        -0.67696
C         41.63110        25.11711        -0.91233
C         42.72332        27.29548        -0.26361
C         41.66181        26.58623        -1.04337
C         42.70737        28.77156        -0.17110
C         41.67365        29.48971        -0.66907
C         42.91869        31.61399         0.01408
C         41.73272        30.99606        -0.70849
C         42.95149        33.11628        -0.09023
C         41.58746        33.76502         0.07050
C         42.90283        36.00734        -0.03790
C         41.60080        35.24529         0.20711
C         42.71912        37.42377         0.46278
C         41.58210        38.14946         0.23010
C         42.79288        40.26834         0.54629
C         41.51870        39.60005         0.45524
C         42.82395        41.74694         0.70807
C         41.51573        42.49541         0.81519
C         42.77313        44.69103         0.74303
C         41.53542        43.98401         0.72706
C         42.83704        46.08353         0.48295
C         41.59060        46.86551         0.63953
C         42.78583        48.90869        -0.22131
C         41.52818        48.24596         0.09533
C         42.80162        50.22196        -0.64488
C         41.58360        50.91355        -1.06497
C         42.61854        53.10738        -0.35506
C         41.54053        52.34539        -1.07381
C         42.80891        54.50375        -1.00421
C         41.50414        55.21273        -1.26546
C         42.87412        57.34450        -1.37237
C         41.60798        56.63699        -1.78237
C         43.85379        16.48102        -0.17142
C         45.22337        18.56154         0.15938
C         43.92803        17.87445        -0.03800
C         45.24047        20.08776         0.31542
C         43.93508        20.88284         0.31098
C         45.26533        22.94889        -0.20146
C         44.05232        22.28676        -0.28060
C         45.43926        24.42793        -0.52649
C         44.10970        25.23081        -0.78719
C         45.20117        27.33219         0.35023
C         43.98788        26.54345         0.02283
C         45.17527        28.69193         0.52173
C         43.82210        29.38817         0.66652
C         45.13866        31.50060         1.26254
C         43.93235        30.89382         0.53866
C         45.19393        33.03059         1.21980
C         43.98873        33.81957         0.74849
C         45.22363        35.90403         1.06809
C         44.09044        35.27764         0.58181
C         45.19705        37.37870         1.26223
C         43.83630        38.09181         1.21175
C         45.18858        39.90792         0.11624
C         43.94063        39.48489         0.64545
C         45.17434        42.04005        -0.01705
C         44.04989        42.55867         0.55579
C         45.35215        44.68819         0.82328
C         44.03987        43.95204         1.16835
C         45.31560        46.08523         0.30923
C         44.04928        46.77754         0.23742
C         45.25575        48.85869        -0.31039
C         44.05439        48.18618        -0.08431
C         45.31536        50.29755        -0.43433
C         44.06823        51.00477        -0.89255
C         45.12973        53.17273        -0.23200
C         43.97923        52.43007        -0.41246
C         45.10179        54.59310        -0.02588
C         43.79450        55.35342        -0.17928
C         43.90381        56.74691        -0.76140
C         47.65471        18.62303        -0.23632
C         46.48415        17.94249        -0.28218
C         47.72478        20.04203         0.06896
C         46.50638        20.78462         0.09475
C         47.71442        22.90039         0.13336
C         46.50464        22.21833         0.00983
C         47.70215        24.33232         0.52158
C         46.40741        25.07342         0.49797
C         47.69965        27.31533         0.55367
C         46.41277        26.57842         0.83704
C         47.69294        28.69710         0.67451
C         46.42664        29.42894         0.74576
C         47.67168        31.57302         0.92499
C         46.44115        30.81567         0.89559
C         47.69666        32.99259         0.97880
C         46.47943        33.75289         1.15883
C         47.76607        35.87797         1.11626
C         46.46508        35.15171         1.18864
C         47.78615        37.38859         1.00539
C         46.49776        38.14718         1.11739
C         47.63907        40.16405        -0.18010
C         46.43762        39.46762         0.44997
C         47.66986        41.68220         0.08912
C         46.52799        42.45571         0.24517
C         47.80078        44.52591         0.00239
C         46.59844        43.89627         0.54124
C         47.72490        45.93398        -0.31178
C         46.47158        46.67824        -0.15012
C         47.76889        48.80880        -0.12238
C         46.51624        48.10507        -0.63798
C         47.81122        50.32155        -0.18323
C         46.48149        51.00789        -0.30568
C         47.46082        53.10548         0.71570
C         46.50973        52.52544        -0.37502
C         47.45768        54.60579         0.64904
C         46.29748        55.27041         0.34171
C         50.23324        20.06536         0.26348
C         48.95505        20.71018         0.24626
C         50.22005        22.87727         0.26468
C         48.91342        22.16081         0.65153
C         50.16171        24.37874         0.48502
C         48.98782        25.06871         0.54481
C         50.20303        27.24274         0.68140
C         48.94693        26.55856         0.16623
C         50.19204        28.69188         1.02979
C         48.92716        29.45598         0.81904
C         50.21622        31.58999         1.15216
C         48.91841        30.83456         0.90357
C         50.14241        32.99843         0.61310
C         48.95116        33.70535         0.70952
C         50.12740        35.88366         0.36943
C         48.96556        35.15644         0.63165
C         50.17055        37.33910         0.34853
C         48.96406        38.08303         0.44263
C         50.15377        40.18086         0.06980
C         48.93728        39.46993         0.18129
C         50.16251        41.64135         0.04613
C         48.96153        42.35669         0.10331
C         50.24457        44.53866         0.01978
C         48.98714        43.80999         0.00322
C         50.26074        45.94443         0.04458
C         49.04995        46.70094        -0.23411
C         50.11614        48.76618         0.80955
C         48.92763        48.12929         0.10331
C         50.09203        50.26255         0.41133
C         48.78834        50.94091         0.85330
C         50.02695        53.08173         0.54085
C         48.82372        52.44087         0.67935
C         51.39914        20.72155         0.53878
C         52.73774        22.92545         0.54920
C         51.44750        22.18975         0.89872
C         52.72311        24.30429         0.48174
C         51.46714        25.06473         0.28713
C         52.76337        27.29202         0.53743
C         51.49437        26.56120         0.35317
C         52.74826        28.68451         0.70235
C         51.51869        29.43459         1.20273
C         52.73688        31.57736         0.62174
C         51.41911        30.81988         0.55384
C         52.69963        32.98329         0.37792
C         51.38336        33.64236         0.17142
C         52.64850        35.88832         0.04035
C         51.36388        35.16912         0.00034
C         52.65085        37.30503         0.05124
C         51.38911        38.04184         0.10940
C         52.62410        40.21690        -0.11018
C         51.36939        39.45513         0.03786
C         52.65235        41.66507         0.16428
C         51.42541        42.36468         0.12003
C         52.67229        44.46845         0.61547
C         51.44183        43.78069         0.18886
C         52.67751        45.97353         0.73351
C         51.55703        46.70970         0.01454
C         52.62670        48.83529         0.93653
C         51.43379        48.13407         0.46015
C         52.61350        50.29381         0.65189
C         51.38619        51.01460         0.60954
C         51.28883        52.40520         0.57898
C         55.16438        22.86374         0.16414
C         53.97750        22.22005         0.35032
C         55.29560        24.28749         0.47230
C         53.97311        25.06936         0.61406
C         55.19978        27.22178         0.37998
C         53.99342        26.55053         0.44459
C         55.18377        28.69269         0.26033
C         53.95032        29.42571         0.61491
C         55.23561        31.60365         0.68831
C         53.94919        30.85538         0.65984
C         55.18004        33.08893         0.40256
C         53.87029        33.73660         0.20500
C         55.11149        35.86936        -0.09073
C         53.86824        35.16485         0.01551
C         55.11893        37.28527        -0.09064
C         53.88360        37.98365         0.01380
C         55.15231        40.12408         0.43663
C         53.90625        39.45613        -0.08350
C         55.12211        41.62678         0.32074
C         53.92374        42.34278         0.29952
C         55.16451        44.50032         0.60991
C         53.96370        43.77623         0.52473
C         55.16149        45.95823         0.75563
C         53.97951        46.66400         0.81403
C         55.23361        48.92138         1.12700
C         53.93162        48.11699         1.10596
C         55.06027        50.21343         0.34726
C         53.86764        50.87539         0.26686
C         57.74062        24.43439        -0.07830
C         56.54044        25.04982         0.20526
C         57.80635        27.28534         0.23345
C         56.49424        26.50138         0.45571
C         57.76269        28.73033        -0.01283
C         56.46463        29.44474         0.08615
C         57.64287        31.56684        -0.28573
C         56.58402        30.87335         0.57373
C         57.49050        32.97527        -0.64871
C         56.36953        33.77432        -0.14789
C         57.56144        35.89243        -0.64984
C         56.34878        35.15547        -0.32270
C         57.56018        37.33554        -0.56916
C         56.35377        38.00277        -0.29798
C         57.62034        40.22910        -0.37428
C         56.32954        39.47650        -0.27591
C         57.69792        41.60208         0.22198
C         56.39070        42.33213         0.51564
C         57.65616        44.46531         0.48552
C         56.42208        43.80143         0.52486
C         57.67786        45.92081         0.76412
C         56.42266        46.69388         0.77773
C         57.69479        48.77837         0.52781
C         56.45950        48.08244         0.77817
C         58.94297        25.15892        -0.30684
C         60.13033        27.30951        -0.63312
C         58.98326        26.54115        -0.24011
C         60.10028        28.67700        -0.67385
C         58.88858        29.42109        -0.41102
C         59.96641        31.61232        -1.05948
C         58.79753        30.87896        -0.62554
C         59.99421        32.96662        -1.16914
C         58.75948        33.75118        -1.13237
C         59.96645        35.95035        -1.09757
C         58.75875        35.21413        -0.94275
C         59.98917        37.32065        -0.99925
C         58.80604        38.06910        -0.73112
C         60.05520        40.26020        -0.61230
C         58.87023        39.47922        -0.56567
C         60.05301        41.64201        -0.46442
C         58.90903        42.38675        -0.05393
C         60.06807        44.57761        -0.13611
C         58.88678        43.78804         0.16374
C         60.10768        45.92982        -0.05862
C         58.98608        46.69421         0.50267
C         58.86760        48.13289         0.27384
O         46.76441        24.34955         1.72138
O         37.18327        22.70387         0.51214
O         50.07486        27.64489         2.07743
O         53.11665        48.41394         2.32276
O         44.17092        33.50380         2.16676
O         40.30942        29.34338        -2.70069
O         29.56562        39.04360         1.98667
O         28.93526        47.41577        -2.02717
O         40.79635        50.21385        -2.08715
O         48.57164        50.61297        -1.41989
O         24.63713        35.26611         2.39006
O         57.21632        41.69680         1.60321
O         54.74369        24.64791         1.78485
O         42.92793        26.57559         1.01428
O         32.06590        46.41374         1.02385
O         57.33363        26.92979         1.57873
O         33.08518        28.80949        -1.95314
O         48.10934        36.71993         2.27206
O         42.17149        42.00608         2.02164
O         38.21801        54.68065        -2.62890
O         48.45414        46.32108        -1.53588
O         45.05626        40.91960        -0.85403
O         39.00156        47.92672         1.83466
O         41.08940        46.60258         1.99604
O         33.68865        50.87477        -1.81868
O         58.59586        46.26945         1.84756
O         45.31834        19.19735         1.49023
O         27.26419        24.73110        -1.67271
O         26.14221        27.51545        -1.35420
O         51.24758        34.26867        -1.15507
O         57.75326        33.26841        -2.06525
O         26.27961        42.56173         2.13720
O         35.83758        41.99547         1.49312
O         34.43767        48.69519         1.29321
O         55.65996        29.21025        -1.10479
O         41.30556        26.90838        -2.41373
O         26.40303        39.96027         2.59078
O         56.69796        40.13896        -1.52641
O         29.30335        43.28951         1.35859
O         34.09718        21.76325        -2.69996
O         30.75782        50.94836        -1.99670
O         38.12937        36.63837        -1.85630
O         27.04921        43.78360        -1.32851
O         55.31693        32.57021         1.79476
O         45.90680        37.92536         2.43264
O         37.34261        31.33989        -2.26580
O         30.78324        42.01600        -1.62208
O         52.37343        45.19274         1.90491
O         29.58982        34.42787         2.17830
O         40.96044        35.76619         1.44254
O         40.38687        23.67741        -2.51616
O         41.86987        21.20856        -2.03620
O         31.18254        27.00379         1.65068
O         46.32567        44.43018         1.90717
O         33.58192        44.29766        -1.71890
O         53.40118        39.93083        -1.36216
O         51.48406        25.87935        -0.96538
O         44.09276        25.63765        -2.13111
O         49.95493        50.23624        -1.07929
O         36.76357        25.97307         0.66675
O         46.19927        24.46686        -1.75292
H         45.58129        24.91413        -2.40970
O         31.08582        33.90804        -1.72861
H         31.37051        33.09112        -2.19452
O         23.86887        39.52234         3.17220
H         24.72348        39.24727         3.58666
O         26.31293        37.98648        -0.52405
H         27.06635        38.31615        -1.05930
O         37.30673        45.97676         2.26412
H         37.56703        46.82622         2.68980
O         31.95856        24.56350         1.64163
H         31.59759        25.25734         2.24462
O         47.54265        40.00374        -1.62711
H         46.67694        40.38900        -1.89730
O         52.00468        46.70677        -1.39956
H         51.28195        47.08812        -1.94402
O         35.69775        19.75957        -2.84064
H         35.42584        20.53673        -3.38146
O         23.76509        26.61326        -1.60408
H         24.60249        26.74150        -2.11331
O         26.74024        30.70703         2.64291
H         27.68333        30.58016         2.92147
O         46.82964        52.74497         2.00265
H         47.11475        53.40428         2.67041
O         43.94536        43.87015         2.60140
H         44.86454        43.86502         2.95572
O         35.41687        33.53965        -2.70082
H         34.79917        32.95601        -3.19396
O         50.41336        31.72529         2.57992
H         49.60941        32.13739         2.95954
O         42.14991        53.18146         1.01874
H         42.48692        54.02308         1.41780
O         25.48900        28.19645         2.17864
H         25.71567        28.97596         2.74359
O         43.15739        36.11580        -1.45799
H         42.33879        36.48641        -1.87770
O         43.24440        55.56193         1.16766
H         43.93139        56.01061         1.70402
O         48.94257        26.58267        -1.28388
H         49.82889        26.26154        -1.58874
O         32.34594        23.60372        -2.52388
H         32.66996        22.91063        -3.14787
O         43.36699        38.19604         2.58057
H         44.15857        38.36160         3.14263
O         46.56120        48.11232        -2.10079
H         47.34599        47.56564        -2.35346
O         40.12373        18.90687         1.59882
H         40.05343        18.00844         1.98653
O         38.56532        34.94480         1.42039
H         39.36498        35.03111         2.00102
O         51.39656        22.27499         2.34167
H         50.47456        22.06008         2.62839
O         29.91654        39.64122        -1.52294
H         30.33657        40.25325        -2.17490
O         33.53091        31.19858        -2.61919
H         33.09995        30.36003        -2.92066
O         36.66400        29.92059         0.64672
H         36.78057        29.09541         1.16639
O         44.20214        51.09724        -2.35762
H         44.38821        50.19338        -2.69347
O         36.64390        39.90113        -2.14123
H         36.02195        39.27214        -2.56871
O         43.45590        54.30268        -2.27734
H         42.84366        53.81109        -2.86498
O         44.99043        31.16475         2.68131
H         44.39522        31.85184         3.06606
O         43.35858        33.43550        -1.44726
H         42.84504        32.84129        -2.05252
O         25.78847        37.52608         3.05944
H         25.25706        36.83562         3.51710
O         34.15307        52.47883         1.51104
H         34.25327        53.38229         1.87717
O         51.13497        30.58661        -0.84496
H         51.10536        31.44988        -1.31077
O         36.40007        33.33914         0.82006
H         37.08035        33.82028         1.35598
O         46.27783        26.70090         2.29347
H         46.59070        25.85147         2.68755
O         50.39409        22.72442        -1.16503
H         49.65608        23.18363        -1.62031
O         43.41000        29.11989         2.03473
H         44.05584        29.58662         2.62182
O         39.66543        34.33445        -2.00744
H         39.84804        33.53095        -2.54036
O         57.13186        30.77282         1.90916
H         56.80644        31.55573         2.41298
O         38.13648        53.67579         0.88673
H         38.14792        52.87000         1.44624
O         47.05157        52.92331        -1.64732
H         46.44070        52.60741        -2.34666
O         39.41941        39.80730        -1.87754
H         38.52985        39.76378        -2.31609
O         48.76508        22.17777         2.11866
H         48.02673        22.78399         2.35495
O         43.60731        21.14920         1.71751
H         43.94870        20.37982         2.23313
O         55.24440        39.79753         1.84740
H         55.97540        40.34881         2.22155
O         41.70553        56.52176        -3.23831
H         40.89830        56.06505        -3.55755
O         51.76395        29.59361         2.61052
H         51.36768        28.81748         3.06654
O         29.56007        30.82090         2.45452
H         29.79013        31.72299         2.77026
O         40.35692        31.14826         1.26235
H         39.49626        31.41676         1.64572
O         49.97846        48.55446         2.22869
H         49.30993        49.18856         2.58428
O         32.97728        40.44785         1.77899
H         33.84923        40.84255         2.00380
O         41.79312        31.40229        -2.09394
H         41.26934        30.70587        -2.61301
O         40.66886        37.31902        -1.81934
H         40.35829        38.16370        -2.23317
O         48.39926        50.62150         2.19565
H         47.65991        51.24409         2.42954
O         40.15053        52.82462        -2.94821
H         39.31310        53.27483        -3.22294
O         55.48090        49.36971         2.48838
H         54.61518        49.28058         2.96081
H         22.03655        26.87655         0.55620
H         22.10438        29.29762         0.90298
H         22.21877        31.12798        -0.08263
H         22.22018        33.58780        -0.01598
H         22.26655        35.59115         0.00158
H         22.23662        37.96582         0.47401
H         21.99287        39.77447         1.08355
H         22.03260        42.08761         0.47657
H         21.96234        44.10388         0.92768
H         21.96813        46.53894         0.53979
H         25.43810        23.47342         0.25461
H         23.38241        24.71023         0.60175
H         25.22849        49.88131        -0.27353
H         23.15746        48.63439         0.10089
H         27.06558        22.43598        -0.01918
H         26.89052        50.80141         0.18503
H         29.18177        21.23081         0.05148
H         28.90734        52.10968        -0.10422
H         32.73072        19.15283        -1.34139
H         30.77636        20.32842        -0.61362
H         32.73107        54.37854        -0.08978
H         30.69231        53.22509        -0.60997
H         34.33361        18.24660        -0.65366
H         34.48169        55.29524        -0.41726
H         36.35202        17.08062         0.01299
H         36.48176        56.42006        -1.23424
H         40.13171        14.78548        -0.23594
H         38.01485        16.00975        -0.31170
H         40.37980        58.50574        -1.46781
H         38.21916        57.35688        -1.46210
H         42.58845        14.73324        -0.31324
H         42.97934        58.38386        -1.72204
H         44.77517        15.88246        -0.17387
H         44.81635        57.32956        -0.55892
H         48.58242        18.10404        -0.51510
H         46.47192        16.90247        -0.63740
H         48.34705        55.17352         0.95758
H         46.29255        56.36993         0.39586
H         50.27979        18.98427         0.06241
H         50.05248        54.17664         0.43514
H         52.32206        20.12731         0.60659
H         52.19810        53.01932         0.64520
H         56.04422        22.30095        -0.17809
H         53.94498        21.13126         0.20704
H         55.96199        50.74248         0.00443
H         53.85492        51.88743        -0.16764
H         57.77568        23.34125        -0.18787
H         57.66776        49.87337         0.44255
H         59.84402        24.60531        -0.60703
H         61.05116        26.77249        -0.90392
H         61.01254        29.20984        -0.97156
H         60.91402        31.06895        -1.16962
H         60.95809        33.47384        -1.31330
H         60.90033        35.42024        -1.32617
H         60.94253        37.84561        -1.14361
H         61.01759        39.77235        -0.81992
H         61.00986        42.16299        -0.60325
H         60.95312        44.05525        -0.52339
H         60.99406        46.47889        -0.40973
H         59.74714        48.68795        -0.08437
