         344
 CSIRO Nanostructure Databank - Neutral Graphene Oxide Data Set
C          1.28150         3.35068         0.37776
C          0.11724         4.04837         0.48700
C          1.21837         6.18319        -0.02498
C          0.11779         5.47897         0.38403
C          1.21323         7.65390         0.04589
C          0.03078         8.37907         0.37474
C          1.18989        10.52858         0.20551
C          0.02455         9.75738         0.45652
C          1.18848        11.97405         0.23038
C          0.03093        12.71294         0.60583
C          1.17132        14.87092         0.41502
C          0.04469        14.10163         0.73143
C          1.23086        16.29668         0.60182
C          0.10101        17.02182         1.02357
C          1.29824        19.14490         1.00295
C          0.14003        18.41121         1.21832
C          1.30252        20.63879         1.26079
C          0.08139        21.34483         0.74332
C          1.31412        23.45457         0.54081
C          0.10364        22.67316         0.46780
C          1.30454        24.87759         0.45379
C          0.08641        25.63010         0.41345
C          1.31195        27.73649         0.35829
C          0.09050        27.00503         0.37222
C          1.33011        29.16242         0.32060
C          3.66220         3.22554         0.24495
C          2.53099         3.98633         0.01423
C          3.68487         6.23944        -0.47922
C          2.41722         5.40603        -0.60107
C          3.59893         7.72972        -0.69768
C          2.37727         8.40781        -0.16758
C          3.58835        10.56625        -0.43446
C          2.38668         9.83098        -0.12337
C          3.56091        11.97745        -0.41427
C          2.37695        12.67710        -0.09717
C          3.64824        14.84638         0.13978
C          2.34099        14.18636        -0.25346
C          3.67413        16.32287         0.16747
C          2.46866        17.02066         0.39171
C          3.69571        19.15866         0.45497
C          2.49770        18.45975         0.60163
C          3.83433        20.56170         0.99893
C          2.56196        21.34570         0.83712
C          3.79416        23.47914         0.62634
C          2.56362        22.74350         0.67494
C          3.78613        24.87919         0.50110
C          2.54119        25.59310         0.43792
C          3.77511        27.74125         0.34495
C          2.54351        27.01966         0.38247
C          3.77251        29.16933         0.29057
C          2.51618        29.85707         0.29286
C          6.21284         3.35785         0.47457
C          5.01049         3.59036        -0.12829
C          6.14561         6.31017        -0.16009
C          4.91159         5.70295        -0.70437
C          6.12155         7.79870        -0.06561
C          4.87125         8.49557        -0.44092
C          6.11016        10.52419        -1.09120
C          4.84620         9.85917        -0.57423
C          6.09728        12.03974        -1.00342
C          4.80836        12.73912        -0.71485
C          6.16908        14.87467        -0.39329
C          4.91795        14.11984        -0.16113
C          6.12872        16.28659        -0.25028
C          4.91789        16.98271        -0.01410
C          6.11360        19.24757        -0.33180
C          4.87257        18.46191        -0.07474
C          6.17849        20.68364         0.06017
C          5.06913        21.31247         0.54988
C          6.29734        23.50030         0.40459
C          5.09658        22.76854         0.93546
C          6.26758        24.90865         0.33195
C          5.02479        25.61446         0.42514
C          6.23892        27.75781         0.19751
C          5.01547        27.03248         0.32952
C          6.23019        29.19358         0.16438
C          4.99469        29.87268         0.22699
C          8.64177         3.49015         0.43694
C          7.44019         4.09833         0.15117
C          8.58792         6.28122        -0.09937
C          7.42941         5.55696        -0.12251
C          8.70800         7.77737         0.20090
C          7.37304         8.62759         0.19361
C          8.57021        10.59664        -0.86610
C          7.40740         9.91300        -0.61268
C          8.58348        12.04848        -0.99058
C          7.38752        12.76178        -0.84992
C          8.62373        14.90968        -0.81722
C          7.37208        14.18362        -0.67672
C          8.62407        16.29216        -0.79195
C          7.41316        17.01940        -0.36755
C          8.58905        19.26680        -0.96586
C          7.41932        18.51388        -0.36006
C          8.63410        20.70401        -0.49085
C          7.45285        21.37480        -0.09837
C          8.69716        23.50737        -0.13655
C          7.48271        22.79114         0.09389
C          8.69697        24.92944        -0.10152
C          7.47858        25.63422         0.09162
C          8.69586        27.77221        -0.10117
C          7.46865        27.05692         0.06170
C          8.68970        29.21847        -0.04419
C          7.46697        29.89373         0.07254
C         11.04447         3.62768         0.85575
C          9.90425         4.18715         0.37561
C         11.14047         6.36607        -0.02828
C          9.89872         5.54362        -0.28682
C         11.14761         7.71766        -0.41980
C          9.83717         8.38440        -0.64540
C         11.11909        10.54734        -1.40824
C          9.82347         9.81986        -1.05074
C         11.08413        12.03134        -1.06488
C          9.85634        12.74588        -0.99604
C         11.11016        14.87032        -0.93218
C          9.87286        14.16808        -0.94802
C         11.13747        16.31857        -0.94048
C          9.85457        17.06517        -1.22084
C         11.14641        19.23645        -0.61629
C          9.85945        18.49317        -0.73981
C         11.04710        20.68522        -1.19387
C          9.84962        21.40195        -0.61800
C         11.12173        23.52583        -0.63617
C          9.89558        22.80220        -0.43336
C         11.11600        24.92073        -0.57861
C          9.91137        25.64293        -0.33350
C         11.16360        27.78717        -0.32710
C          9.90116        27.07034        -0.30044
C         11.15592        29.24497        -0.19967
C          9.93164        29.91720        -0.10516
C         13.57642         3.63478         0.92525
C         12.30601         4.41321         1.06937
C         13.57078         6.40360         0.16686
C         12.33630         5.73112         0.33908
C         13.58220         7.77095        -0.24986
C         12.35375         8.45258        -0.50083
C         13.57402        10.52528        -0.93250
C         12.37021         9.84634        -0.87414
C         13.56346        11.97672        -1.24976
C         12.30015        12.73047        -1.05855
C         13.59738        14.86919        -0.92657
C         12.33601        14.15157        -0.97428
C         13.59331        16.32343        -0.84860
C         12.32714        17.01330        -0.90777
C         13.60094        19.22394        -0.93894
C         12.32717        18.48349        -1.26530
C         13.60749        20.65028        -0.91302
C         12.36471        21.41448        -0.99393
C         13.60980        23.54276        -0.79180
C         12.36530        22.79533        -0.83784
C         13.63229        24.91505        -0.72276
C         12.35584        25.68562        -0.95961
C         13.62771        27.77158        -0.05351
C         12.34734        27.09923        -0.44489
C         13.62458        29.26173        -0.31982
C         12.39068        29.93979        -0.29314
C         16.03007         3.60531         0.86867
C         14.78866         4.29058         0.70659
C         16.03968         6.33493         0.06630
C         14.80664         5.69204         0.33771
C         16.05406         7.75397        -0.23998
C         14.82432         8.46280        -0.37229
C         16.05951        10.55934        -0.64918
C         14.83024         9.86268        -0.66263
C         16.18850        12.01391        -1.04176
C         14.85815        12.73660        -1.19836
C         16.06935        14.88016        -0.74886
C         14.81104        14.18644        -0.92446
C         16.11608        16.38482        -0.92916
C         14.77604        17.05642        -0.81886
C         15.98951        19.20115        -0.36526
C         14.78283        18.50308        -0.72328
C         16.03691        20.62862        -0.41480
C         14.83515        21.32833        -0.73421
C         16.14514        23.49090        -0.65592
C         14.88331        22.78865        -1.07319
C         16.13570        24.94776        -0.70164
C         14.88345        25.65384        -0.65632
C         16.08607        27.78145        -0.41402
C         14.87618        27.05181        -0.49218
C         16.08914        29.22886        -0.32193
C         14.84713        29.93298        -0.38102
C         18.51276         3.59054         0.89305
C         17.24885         4.25760         0.65923
C         18.53093         6.22464        -0.15269
C         17.24997         5.60751         0.19957
C         18.55178         7.75430        -0.39596
C         17.26961         8.46849        -0.31533
C         18.52444        10.61697        -0.22673
C         17.27145         9.88040        -0.40202
C         18.48524        12.02354        -0.05609
C         17.13804        12.72959        -0.07601
C         18.54566        14.89395        -0.38537
C         17.21162        14.19774        -0.43055
C         18.44029        16.36272        -0.12386
C         17.09682        16.97198         0.10354
C         18.27373        19.15409         0.51996
C         17.13890        18.48481         0.07149
C         18.38342        20.59384         0.40320
C         17.27229        21.32618        -0.15131
C         18.57036        23.47818        -0.78705
C         17.30643        22.76651        -0.41410
C         18.68781        25.00556        -0.64864
C         17.32731        25.67417        -0.58250
C         18.52159        27.77876        -0.03229
C         17.31450        27.07875        -0.39583
C         18.52168        29.20027         0.03892
C         17.30587        29.90715        -0.18731
C         19.71026         4.23474         0.75075
C         20.96072         6.32074         0.21504
C         19.78053         5.59013         0.27771
C         20.97186         7.72208         0.00131
C         19.81034         8.46874        -0.16769
C         20.93011        10.67606         0.15699
C         19.76100         9.92290        -0.08538
C         20.87931        12.05311         0.32109
C         19.65359        12.74102         0.25113
C         20.80889        14.99691         0.63730
C         19.51448        14.21461         0.59756
C         20.87666        16.30121         0.34089
C         19.68146        17.15457        -0.01695
C         20.63564        19.01821         1.40176
C         19.39335        18.29258         1.07338
C         20.71961        20.37037         1.24146
C         19.61541        21.17821         0.84873
C         19.22697        23.48834         1.79617
C         19.90429        22.61363         0.99603
C         19.58446        24.91035         1.72445
C         19.43979        25.57670         0.55614
C         20.76427        27.71363         0.90888
C         19.63324        27.03838         0.45338
C         20.81499        29.12209         0.85259
C         19.71803        29.85913         0.43734
O          5.24456        18.98008        -1.46774
O         18.58330         6.79368        -1.49929
O          5.83158         6.96320         1.14343
O         19.37253        22.90489        -1.53604
O          5.03352         4.42963        -1.26345
O         14.25057        12.37116        -2.49505
O          7.72937        17.84720         0.88682
O          4.39453        14.20159         1.21802
O          9.54264         8.70867        -2.03199
O          5.28030        12.62679        -2.09702
O          4.01333        20.38332         2.47263
H          3.10075        20.29598         2.85532
O         12.27481         4.77286         2.51653
H         13.06110         5.33387         2.69019
O         18.87754        14.28157         1.90867
H         19.52653        13.97412         2.57558
O         12.18781        18.48401        -2.72414
H         11.40698        17.89895        -2.93821
O         16.61603        16.51700         1.39849
H         17.34544        16.69979         2.04280
O         16.67586        16.68080        -2.24163
H         15.96781        16.55612        -2.90862
O          9.78772        17.12450        -2.71593
H          9.06712        17.78143        -2.92375
O          9.24496         7.79146         1.54541
H          8.65061         8.37408         2.08307
O         11.49257        19.38168         0.79759
H         10.66527        19.33826         1.32196
O         13.66422        27.65331         1.42566
H         12.90754        28.17272         1.77360
O         18.95509        17.57017         2.26280
H         18.93025        18.20888         3.00620
O         19.35111        25.44923        -1.85033
H         19.79143        24.64922        -2.22621
O         19.14627        14.78317        -1.71500
H         18.48497        15.13585        -2.35197
O          5.22717        22.81702         2.40661
H          4.81590        21.98157         2.75207
O          3.42516         7.81024        -2.17281
H          2.72742         7.15180        -2.40919
O          2.13336         5.23393        -2.02558
H          2.88479         4.72440        -2.40135
O          1.27163        20.75413         2.75892
H          1.14600        21.70670         2.96333
O         21.07699        23.02719         0.42313
H         21.30259        22.42728        -0.31656
O         16.84059        12.05023        -2.33431
H         16.14143        11.86954        -3.00386
O         12.29695        25.83923        -2.43100
H         11.42978        26.24301        -2.64857
O         11.24062        10.51351        -2.85573
H         10.79066         9.69164        -3.15985
O          8.34952        19.34256        -2.41929
H          9.07227        19.93315        -2.77046
O          9.95872         5.26111        -1.72967
H          9.90830         6.11937        -2.20418
O         10.76817        20.62408        -2.62514
H         11.46502        20.03576        -3.02485
O         19.96685        17.90069        -1.22545
H         19.97535        17.26104        -1.96890
O          7.17764         9.15017         1.54827
H          6.56759         8.52455         2.00687
O         14.97715        22.81371        -2.55822
H         15.80083        22.34081        -2.80612
O          6.09621        10.19338        -2.51547
H          5.56104        10.89342        -2.95827
O          2.21143        14.45254        -1.69080
H          1.37026        14.05157        -1.99507
O         16.57480        12.64171         1.25913
H         17.12869        13.22497         1.83135
H          1.29808         2.27239         0.59752
H         -0.81395         3.53683         0.76694
H         -0.78766         5.99810         0.72626
H         -0.91511         7.84995         0.54984
H         -0.92157        10.25859         0.70155
H         -0.88991        12.18012         0.87582
H         -0.85918        14.58623         1.12686
H         -0.85009        16.50353         1.20361
H         -0.77513        18.91799         1.55519
H         -0.86366        20.78919         0.66029
H         -0.82879        23.16352         0.15302
H         -0.87748        25.10361         0.43067
H         -0.86073        27.55677         0.35104
H          0.37262        29.70368         0.31156
H          3.52131         2.26663         0.77246
H          2.51407        30.95630         0.26003
H          6.27551         2.61843         1.28754
H          4.98156        30.97259         0.19763
H          8.64255         2.45666         0.81603
H          7.45771        30.99392         0.09205
H         11.01375         2.60766         1.27158
H          9.92382        31.01685        -0.06086
H         13.58327         2.57817         1.23364
H         12.37996        31.03906        -0.35360
H         16.02093         2.55398         1.19183
H         14.86048        31.03306        -0.43061
H         18.48828         2.54694         1.23902
H         17.30860        31.00678        -0.13749
H         20.64914         3.71457         0.99199
H         21.91111         5.82339         0.45881
H         21.94109         8.23285         0.08788
H         21.90211        10.17221         0.24143
H         21.81371        12.59277         0.52584
H         21.73297        14.47550         0.93256
H         21.85544        16.80503         0.35961
H         21.48550        18.45222         1.80765
H         21.64929        20.88688         1.52424
H         18.37768        23.15609         2.40951
H         19.94610        25.43686         2.62484
H         21.62200        27.15010         1.30169
H         21.72692        29.64043         1.18170
H         19.74751        30.95814         0.45783
