         276
 CSIRO Nanostructure Databank - Neutral Graphene Oxide Data Set
C        -11.19034         0.68093         0.02295
C         -9.99273         1.45718        -0.27362
C         -8.78650         0.64917        -0.73590
C         -7.48340         1.39679        -0.53599
C         -6.23579         0.63534        -1.04982
C         -4.99519         1.48989        -0.77647
C         -3.68669         0.81340        -0.87891
C         -2.45201         1.52968        -0.45228
C         -1.24236         0.72158        -0.11308
C         -0.01163         1.40626         0.35473
C          1.29317         0.66582         0.36248
C          2.54604         1.50560         0.17843
C          3.79169         0.62603         0.43079
C          5.01513         1.51124         0.19687
C          6.31014         0.77292         0.12268
C          7.58629         1.50786         0.37239
C          8.87433         0.75695         0.30015
C         10.07416         1.49906        -0.18363
C         11.24465         0.67219        -0.48187
C         -9.98305         2.82738        -0.23328
C         -8.77014         3.62823        -0.35012
C         -7.48269         2.87971        -0.37939
C         -6.29787         3.57467        -1.03775
C         -5.01195         2.84357        -0.69834
C         -3.83386         3.59295        -0.17027
C         -2.58154         2.84375         0.29206
C         -1.26130         3.64027         0.16968
C          0.03479         2.90241         0.27053
C          1.22718         3.58504         0.90123
C          2.53726         2.77396         1.08179
C          3.81554         3.60476         0.87561
C          4.98801         2.95321         0.58814
C          6.31304         3.64250         0.59449
C          7.55295         2.96825        -0.03490
C          8.89501         3.66855         0.32571
C         10.04514         2.86093        -0.28378
C         -8.72982         4.99692        -0.34806
C         -7.40764         5.71130        -0.08500
C         -6.24700         5.13081        -0.94117
C         -4.89761         5.80540        -0.96725
C         -3.75718         5.07257        -0.33027
C         -2.51649         5.85069         0.09382
C         -1.28185         5.10500         0.48025
C         -0.00257         5.85624         0.60425
C          1.19505         5.07945         1.06964
C          2.47129         5.83491         1.47747
C          3.79741         5.05371         1.27736
C          5.07671         5.86412         1.16517
C          6.34408         5.13254         0.75312
C          7.42601         5.81158        -0.09528
C          8.77300         5.14659         0.02631
C         -7.48326         7.21828         0.23760
C         -6.60646         8.17976        -0.16379
C         -4.74577         7.26433        -0.90743
C         -3.65202         7.97247        -0.56769
C         -2.32154         7.27608        -0.39524
C         -1.30010         8.07369         0.46690
C         -0.00556         7.22877         0.64985
C          1.24505         7.88375         0.99231
C          2.48749         7.27596         0.96594
C          3.72790         8.10025         0.99403
C          5.11734         7.41525         1.22128
C          6.25207         7.99026         0.37334
C          7.37769         7.30929         0.03697
C         -6.11570         9.37514         0.54003
C         -4.87789         9.92055         0.38509
C         -3.78006         9.48774        -0.60793
C         -2.41055        10.11843        -0.48538
C         -1.21933         9.47551        -0.20501
C         -0.00047        10.11611        -0.62514
C          1.24484         9.83790        -0.02482
C          2.54456         9.97570        -0.48979
C          3.70819         9.49768         0.27300
C          5.01872        10.05880        -0.14287
C          6.18288         9.39599        -0.01047
C        -11.22111        -0.67186         0.06216
C        -10.02192        -1.53288        -0.26672
C         -8.73639        -0.70986         0.02765
C         -7.45379        -1.51776        -0.21429
C         -6.14822        -0.74448        -0.32827
C         -4.90398        -1.31649        -0.31819
C         -3.72971        -0.69003        -1.04401
C         -2.48986        -1.40832        -0.46295
C         -1.19075        -0.66934        -0.66538
C          0.07872        -1.43096        -0.58643
C          1.30245        -0.77538        -0.01367
C          2.56241        -1.48573        -0.40097
C          3.84560        -0.64931        -0.47273
C          5.08845        -1.47732        -0.09612
C          6.27448        -0.70022         0.41938
C          7.56483        -1.44390         0.57425
C          8.78370        -0.72787         0.06995
C         10.00299        -1.49418        -0.31587
C         11.24619        -0.68477        -0.45265
C        -10.04596        -2.92184         0.34839
C         -8.88496        -3.67865         0.40280
C         -7.59173        -2.98173         0.13264
C         -6.44622        -3.78769         0.57929
C         -4.62738        -2.68003         0.10733
C         -3.73911        -3.55536        -0.47322
C         -2.50594        -2.86016        -0.92771
C         -1.22441        -3.63084        -0.82074
C         -0.01261        -2.90934        -0.32096
C          1.21735        -3.65912         0.06831
C          2.52363        -2.98677        -0.32750
C          3.81625        -3.80196        -0.37734
C          5.06948        -2.98109         0.01983
C          6.24130        -3.70559         0.65542
C          7.55294        -2.96676         0.62423
C          8.71518        -3.70466         0.04699
C         10.06628        -2.99583        -0.02278
C         -8.80409        -5.09570         0.57871
C         -7.58133        -5.85952         0.47964
C         -6.31465        -5.12552         0.42548
C         -4.90595        -5.73411         0.49417
C         -3.94630        -5.08606        -0.58797
C         -2.59421        -5.86008        -0.73357
C         -1.26421        -5.14526        -0.82429
C          0.08918        -5.87363        -0.70050
C          1.12253        -5.18084         0.25090
C          2.48564        -5.83899         0.16983
C          3.67425        -5.17116         0.24702
C          4.92631        -5.93118         0.51638
C          6.30109        -5.25229         0.65293
C          7.36445        -5.80237        -0.30005
C          8.55340        -4.95962        -0.47524
C         -7.51693        -7.22399         0.69689
C         -6.26503        -8.02473         0.43407
C         -4.95351        -7.23962         0.32311
C         -3.81192        -7.94961         0.13785
C         -2.60299        -7.38487        -0.57139
C         -1.27316        -7.98256        -0.17852
C         -0.08918        -7.31849        -0.24738
C          1.17504        -8.05420         0.19239
C          2.44639        -7.29585        -0.11829
C          3.71511        -8.05908        -0.26423
C          4.95846        -7.40488         0.25950
C          6.32311        -8.07629         0.07516
C          7.31149        -7.13214        -0.62599
C         -6.02754        -9.18542         1.38467
C         -4.88011        -9.87150         1.29433
C         -3.83957        -9.46524         0.27005
C         -2.47742       -10.06172         0.50274
C         -1.27572        -9.42494         0.17643
C         -0.06713       -10.14693         0.13038
C          1.17150        -9.46890        -0.40466
C          2.49219       -10.20453        -0.26344
C          3.68411        -9.54649        -0.28138
C          4.99422       -10.15948        -0.50580
C          6.15587        -9.46367        -0.51000
O         -1.96937        -5.57786        -2.03341
O          6.87770        -3.29481         1.88694
O         -2.92396        -7.93246        -1.98434
O         -0.44111         3.39815        -1.01871
O          6.90716        -5.68323         1.84836
O          1.29784        -0.37131         1.38528
O         -5.40959        -3.09335         1.18510
O          5.66657         1.23659        -1.10017
O         -4.31750         4.46116         0.90374
O         -7.53156        -2.52459        -1.28819
O          6.72988         4.26992         1.85589
O          8.31317         1.19715         1.58016
O         -7.25838         1.99039         0.77645
O          3.06551        -7.50358        -1.44878
O         -2.80287         1.51592        -1.84725
O          0.80760         4.16622         2.17939
O         -6.27881         0.34890        -2.41112
O          9.01145        -1.11093        -1.33330
O          5.53091        -2.29532        -1.21749
O          3.58928         9.34883         1.71522
O          1.11907         9.24845         1.25318
O          4.72409        -6.90063         1.60258
O         -0.94222         0.82360         1.32057
O         -1.73655        -3.13089        -2.10703
O         -5.89587         7.93891        -1.35930
O          2.34723        -2.27443        -1.60533
O         -2.22597         5.57660         1.49072
O         -0.38898        -0.89391        -1.85147
O          4.64135         5.31734         2.43919
O          0.38330        -3.03795         1.10033
O         -5.65822         5.54707        -2.21064
O          6.85227        -0.91328         1.72840
O          0.65285        -5.46017         1.59710
H          0.43153        -4.59793         2.02707
O          2.56217         2.32916         2.45045
H          2.05335         2.97681         2.99332
O          0.69769        -5.84073        -1.99867
H          0.00939        -6.04057        -2.66854
O          0.92979        -9.32465        -1.83590
H          1.07298       -10.19440        -2.26307
O         -6.97482         5.18864         1.21944
H         -7.74033         5.19713         1.83148
O         -2.77407         2.54405         1.68183
H         -3.21432         3.33128         2.08289
O         -1.69993        -8.19611        -2.69203
H         -1.43563        -7.28838        -2.99413
O         -4.24501       -10.05434        -1.01657
H         -3.72277        -9.56673        -1.70779
O          2.56867         1.99778        -1.16925
H          2.95437         1.30581        -1.76292
O          4.03514        -4.18492        -1.75960
H          3.63315        -3.49035        -2.33039
O          7.49882         3.03233        -1.47943
H          6.77004         2.42974        -1.78044
O          1.11778        -8.21547         1.62675
H          1.06477        -7.31338         2.02422
O          3.84215         0.11155         1.76132
H          3.45683         0.77049         2.38875
O         -3.89715        -0.99197        -2.43221
H         -4.74574        -0.53691        -2.71410
O         -6.53440        -8.59183        -0.88263
H         -5.81960        -9.25401        -1.08185
O          2.35506         6.05667         2.90750
H          1.86764         5.29559         3.29587
O         -4.21163         9.90937        -1.92872
H         -5.05790         9.43601        -2.11589
O          6.96640         5.63262        -1.49026
H          7.25429         4.72893        -1.79209
O          6.91889        -8.30604         1.37046
H          6.90407        -7.41469         1.83445
O         -8.91033         0.46751        -2.14706
H         -9.54932        -0.26761        -2.32099
O         -8.75646        -0.40834         1.44034
H         -8.21789         0.40175         1.59634
O          9.21087         3.66598         1.73813
H          8.39857         3.92525         2.24055
O         -6.57317         3.28091        -2.42979
H         -5.95941         3.80839        -2.98794
O         -1.74006         7.13682        -1.72097
H         -1.87688         7.97811        -2.20715
O        -10.09180        -1.83294        -1.69693
H         -9.24563        -2.30452        -1.92195
O         -4.63284        -5.26952        -1.83675
H         -4.00848        -5.02833        -2.55646
O         -1.86421         8.25778         1.77118
H         -1.19465         8.70097         2.33327
O         -2.65157        -1.46713         0.98215
H         -2.19251        -0.71292         1.41811
O         10.71168        -3.12683         1.25175
H         10.45164        -3.98108         1.65428
O          3.93616        -0.25515        -1.85051
H          4.33926        -1.00788        -2.34160
O         -4.32761        -5.51144         1.79713
H         -4.50300        -4.57137         2.03909
O          5.50821         7.74326         2.56636
H          4.93081         7.22469         3.17132
H         12.19259        -1.22595        -0.60192
H         12.19323         1.20029        -0.66467
H         10.93897         3.40104        -0.63228
H          9.64614         5.77987         0.25477
H          8.17515         7.86070        -0.48780
H          7.11858         9.86991        -0.34442
H          5.01646        11.08071        -0.55108
H          2.72705        10.39784        -1.48818
H         -0.06162        10.86041        -1.43412
H         -2.34001        11.13195        -0.91400
H         -4.63380        10.77920         1.03214
H         -6.76579         9.79365         1.32638
H         -8.05314         7.41709         1.16119
H         -9.66467         5.57861        -0.33671
H        -10.92168         3.36013        -0.00722
H        -12.10686         1.24391         0.26299
H        -12.16523        -1.18360         0.30504
H        -11.02587        -3.41444         0.45797
H         -9.74131        -5.65174         0.73796
H         -8.44270        -7.79401         0.87308
H         -6.81007        -9.47730         2.10167
H         -4.68232       -10.74355         1.93576
H         -2.44741       -11.13853         0.73701
H         -0.07978       -11.22961         0.33795
H          2.47358       -11.30492        -0.33476
H          5.00687       -11.22264        -0.79556
H          7.08582        -9.99717        -0.76330
H          8.14395        -7.58379        -1.19172
H          9.41308        -5.42643        -0.98653
H         10.69793        -3.49808        -0.81544
