         349
 CSIRO Nanostructure Databank - Neutral Graphene Oxide Data Set
C          1.21585         3.61011         1.39841
C         -0.01065         4.22221         1.18141
C          1.09286         6.22857         0.31220
C         -0.07642         5.52127         0.66372
C          1.03691         7.65588        -0.02485
C         -0.11502         8.39851        -0.11697
C          1.02565        10.58639        -0.21954
C         -0.11854         9.83880        -0.19249
C          1.11376        12.07846         0.07408
C         -0.14294        12.85130        -0.22827
C          1.08581        15.00321        -0.61312
C         -0.15364        14.16931        -0.44711
C          1.20157        16.20692         0.35359
C         -0.05984        17.01969         0.50118
C          1.02217        19.10686        -0.25154
C         -0.13235        18.34148         0.28215
C          1.00189        20.60977        -0.44572
C         -0.18905        21.40799        -0.10532
C          1.09938        23.50307        -0.06625
C         -0.13289        22.76659        -0.01959
C          1.07754        25.01448        -0.23528
C         -0.10285        25.76364         0.35059
C          1.16026        27.86898         0.45848
C         -0.03249        27.08946         0.65654
C          1.21866        29.26103         0.55962
C          3.68306         3.67932         1.26836
C          2.41582         4.27807         1.03547
C          3.59717         6.16782        -0.05530
C          2.34484         5.57683         0.46183
C          3.56146         7.63145        -0.44926
C          2.32610         8.38409        -0.04550
C          3.53623        10.54147        -0.76845
C          2.32115         9.88087        -0.14110
C          3.54173        12.04776        -0.65350
C          2.36767        12.75534        -0.48837
C          3.56993        14.89971        -0.64885
C          2.37397        14.19724        -0.55726
C          3.62669        16.31635        -0.36413
C          2.39547        17.03690        -0.07622
C          3.55106        19.19349        -0.26723
C          2.33332        18.40910        -0.19547
C          3.54545        20.56623        -0.28383
C          2.31592        21.37751        -0.66025
C          3.57024        23.52460        -0.10246
C          2.32225        22.82687        -0.16045
C          3.64174        24.93269         0.01702
C          2.34768        25.66254         0.34335
C          3.69673        27.77019         0.65090
C          2.39679        27.16189         0.00125
C          3.69204        29.29550         0.43913
C          2.43719        29.95729         0.47536
C          6.10031         3.62013         1.42972
C          4.92063         4.26234         0.89993
C          6.09126         6.29945        -0.04695
C          4.90252         5.51655         0.18855
C          6.09320         7.71704        -0.19382
C          4.85685         8.40830        -0.71476
C          6.09782        10.56502        -0.71238
C          4.82581         9.88248        -0.25912
C          6.06162        11.92043        -1.39697
C          4.75431        12.70800        -1.18753
C          6.09307        14.98079        -1.33806
C          4.77740        14.22026        -1.15952
C          6.10062        16.33117        -0.64103
C          4.84848        16.98442        -0.35328
C          6.10182        19.14438         0.10463
C          4.80813        18.42697        -0.00687
C          6.12202        20.59102        -0.25843
C          4.82583        21.32281        -0.36847
C          6.12308        23.49540        -0.10899
C          4.83573        22.74657         0.15714
C          6.12739        24.90653        -0.05028
C          4.88025        25.61083         0.03566
C          6.19578        27.71626         0.56667
C          4.93181        27.12783        -0.03399
C          6.18913        29.26492         0.62152
C          4.91230        29.93802         0.34897
C          8.66221         3.65532         1.48022
C          7.38957         3.81888         0.91732
C          8.58467         6.37229         0.09237
C          7.36509         5.68269        -0.08631
C          8.54050         7.78289        -0.03771
C          7.30477         8.44500        -0.22966
C          8.54650        10.56734        -0.78715
C          7.27482         9.88722        -0.54730
C          8.54126        12.01185        -0.99451
C          7.32302        12.73396        -1.10141
C          8.55763        14.84116        -0.84708
C          7.33044        14.14094        -1.02890
C          8.58174        16.27550        -0.68441
C          7.32424        16.97146        -0.49231
C          8.65911        19.12030        -0.00116
C          7.37550        18.35955         0.02607
C          8.64533        20.62537         0.05217
C          7.36662        21.35952        -0.09638
C          8.59471        23.48189        -0.46973
C          7.34000        22.74159        -0.16914
C          8.64349        24.89545        -0.02110
C          7.38294        25.64746         0.02045
C          8.70454        27.74204         0.30084
C          7.45814        27.01269         0.27839
C          8.68638        29.19875         0.37962
C          7.47528        29.91500         0.43291
C         11.08064         3.75748         1.27038
C          9.83138         4.34392         0.98136
C         11.05190         6.35634         0.16200
C          9.81252         5.65503         0.37095
C         11.06179         7.73122        -0.23074
C          9.81932         8.56067         0.04066
C         10.98245        10.54001        -1.07950
C          9.73091         9.88099        -0.67481
C         11.02196        12.00403        -0.97466
C          9.78229        12.71165        -0.92254
C         11.04193        14.82616        -0.75295
C          9.79316        14.13322        -0.83741
C         11.06207        16.25631        -0.69122
C          9.81629        16.95147        -0.63298
C         11.15140        19.17246        -0.66283
C          9.84972        18.43670        -0.60150
C         11.20418        20.60626        -0.32315
C          9.92769        21.34492        -0.21003
C         11.20665        23.49725        -0.64610
C          9.88716        22.76943        -0.64772
C         11.18781        25.01494        -0.62762
C          9.95686        25.61676         0.02976
C         11.18068        27.77599         0.01392
C          9.92758        27.08924         0.09215
C         11.16788        29.21842         0.17044
C          9.92147        29.88548         0.32441
C         13.52470         3.69486         1.18680
C         12.31713         4.34438         0.90084
C         13.50568         6.37164         0.10814
C         12.29762         5.68240         0.33946
C         13.50603         7.69148        -0.38185
C         12.27382         8.36496        -0.56400
C         13.52711        10.55435        -1.01123
C         12.27819         9.76774        -1.07067
C         13.50816        11.94085        -0.93817
C         12.25245        12.67222        -0.90939
C         13.50896        14.78147        -0.67718
C         12.26436        14.09686        -0.78699
C         13.49714        16.19382        -0.45910
C         12.32000        16.93245        -0.56357
C         13.42000        19.07377         0.36543
C         12.47734        18.44392        -0.70333
C         13.61148        20.56149         0.10804
C         12.38900        21.27578        -0.12041
C         13.68122        23.46562         0.08981
C         12.44758        22.74845        -0.30225
C         13.65296        24.92355         0.16445
C         12.45409        25.63242        -0.06210
C         13.69083        27.75377        -0.00445
C         12.40298        27.05221         0.01391
C         13.65361        29.29120         0.01869
C         12.37206        29.92932         0.24862
C         16.07112         3.78412         1.39952
C         14.81602         4.25756         0.83308
C         16.00081         6.56149         0.58946
C         14.80779         5.68800         0.25763
C         16.06352         7.78588        -0.28989
C         14.79469         8.32294        -0.77470
C         16.06429        10.57198        -1.07575
C         14.79421         9.83256        -1.13071
C         16.00325        11.97479        -1.12393
C         14.75895        12.67962        -0.97120
C         15.97359        14.91957        -1.09479
C         14.73978        14.07808        -0.84873
C         16.02838        16.12095        -0.17477
C         14.73438        16.84404         0.05636
C         16.03184        19.04423         0.56214
C         14.72823        18.28804         0.47058
C         16.04997        20.51988         0.43758
C         14.80608        21.25806         0.28118
C         16.14659        23.46710         0.38694
C         14.82926        22.72092         0.27541
C         15.98832        24.80820         1.15904
C         14.85323        25.63531         0.54550
C         16.10635        27.77410         0.67528
C         14.89358        27.02668         0.46577
C         16.14135        29.13895         0.35906
C         14.91290        30.01328         0.41694
C         18.53922         3.82311         1.42372
C         17.28187         4.45697         1.14030
C         18.50471         6.47111         0.39364
C         17.29113         5.79222         0.63510
C         18.51601         7.83137        -0.08678
C         17.27006         8.47422        -0.46561
C         18.54221        10.54418        -0.95767
C         17.29784         9.85109        -0.92435
C         18.58822        11.95973        -1.35326
C         17.23333        12.74173        -1.38716
C         18.49764        14.86327        -1.04930
C         17.27985        14.16872        -1.10227
C         18.52884        16.27384        -0.71995
C         17.33157        16.84739        -0.05930
C         18.53506        19.09344        -0.01419
C         17.34225        18.29824         0.32549
C         18.51698        20.48024         0.29892
C         17.26788        21.17599         0.51900
C         18.58173        23.34077         0.92221
C         17.25946        22.61154         0.99901
C         18.61162        24.70921         1.29838
C         17.35019        25.55844         1.31847
C         18.58052        28.06872         1.14484
C         17.36160        27.07909         1.11245
C         18.55464        29.11686         0.06363
C         17.34513        29.75435        -0.09738
C         19.72280         4.47248         1.18426
C         20.96002         6.49770         0.47157
C         19.73943         5.80356         0.66909
C         20.96134         7.81392         0.06544
C         19.74689         8.51260        -0.20901
C         20.96271        10.66997        -0.58696
C         19.75842         9.91048        -0.59595
C         20.98368        12.03573        -0.81325
C         19.80615        12.74772        -1.13670
C         20.94209        14.96225        -1.28254
C         19.75846        14.17151        -1.19556
C         20.90853        16.33334        -1.17254
C         19.70445        17.01782        -0.80781
C         20.87157        19.23823        -0.61455
C         19.70827        18.45512        -0.48603
C         20.88952        20.57216        -0.21414
C         19.73515        21.21256         0.26586
C         21.01383        23.17877         1.07793
C         19.77525        22.59959         0.74283
C         21.04986        24.45166         1.62639
C         19.86914        25.19747         1.71485
C         21.03570        27.82161         0.58564
C         19.92642        27.43636         1.27243
C         20.94474        28.88297        -0.38082
C         19.75279        29.51722        -0.61026
O         15.00459         4.59838        -0.62917
O         16.83933        15.94315         1.00546
O          4.44093        13.49145        -2.40609
O          3.35217         6.63550        -1.47490
O         14.59095        17.23826         1.47306
O          7.41286         4.33912        -0.40831
O         13.84379        28.56426        -1.23064
O          9.45268        24.97496         1.23240
O         11.53988         9.96688        -2.33027
O          0.75199        19.69475        -1.58399
O          3.73334        27.51365         1.99980
O          9.42752        21.17983         1.17544
O          9.08452        23.13239        -1.81522
O          5.54244        20.96815        -1.58660
O         16.86288        18.58125         1.67362
O         17.91328        12.29583        -2.60531
O          2.52918         9.21879         1.15100
O         10.31820        18.99737        -1.88159
O         14.78819         8.78464        -2.15674
O         12.07813        23.04387        -1.73761
O         17.23954        26.47073         2.45742
O         20.00711        26.47437         2.28542
O          5.35646        18.80499         1.31953
O          8.21605        18.49023         1.23279
O          6.14045        28.36486         1.81969
O          5.05726        27.48909        -1.43439
H          4.16677        27.37680        -1.85388
O         15.51532        24.50597         2.48262
H         15.79566        25.24745         3.06480
O         18.37637        28.80916         2.38950
H         18.29500        28.12892         3.09671
O          0.99522        25.19489        -1.69024
H          1.42399        24.42337        -2.12167
O          2.44559        21.56976        -2.10375
H          2.06666        20.76033        -2.52340
O          1.26850        12.11955         1.52717
H          1.92096        11.43139         1.78399
O         11.10777        25.45374        -2.00786
H         11.61393        24.80043        -2.54345
O          6.20624        15.32341        -2.75234
H          5.67096        14.66433        -3.25212
O         15.72836         7.03484         1.96279
H         16.51610         7.53608         2.26364
O         14.75792        30.46782         1.77045
H         15.64202        30.70140         2.12202
O         16.57753        23.78207        -0.96030
H         15.80550        24.11481        -1.46519
O          2.17121        25.52393         1.76869
H          2.78279        26.19787         2.20132
O          4.84865         9.97954         1.18151
H          5.68960         9.58761         1.49856
O          4.81502        22.53487         1.61880
H          4.73132        23.41216         2.05183
O          9.98778         8.95522         1.46638
H         10.01264         8.12687         1.99247
O         13.08948        18.68301        -1.99017
H         12.37503        18.64356        -2.66421
O          1.01909        15.58607        -1.94039
H          1.06461        14.86154        -2.59837
O         15.81494        15.48321        -2.44132
H         15.85035        14.74310        -3.08457
O         16.99728        22.48314         2.42443
H         17.54467        21.74826         2.77202
O          6.09024        11.57763        -2.81742
H          5.73918        12.35907        -3.30474
O          1.51285        15.64721         1.65180
H          1.65195        16.38233         2.28386
O          3.40381        10.31258        -2.19247
H          4.26815        10.52435        -2.62175
O         12.73098        18.98511         1.62835
H         13.14337        18.24473         2.13435
O          5.06207         8.42035        -2.14841
H          4.69857         7.57181        -2.49377
O          2.48150        27.36005        -1.43106
H          1.80126        26.76076        -1.83970
H          1.26996         2.60410         1.83757
H         -0.93975         3.69859         1.44598
H         -1.05903         5.99893         0.55081
H         -1.09523         7.90225        -0.07747
H         -1.10253        10.32974        -0.18982
H         -1.10112        12.31416        -0.16111
H         -1.11183        14.68251        -0.62551
H         -0.94434        16.48657         0.88302
H         -1.08688        18.86856         0.42915
H         -1.15802        20.89527        -0.03024
H         -1.06964        23.31861         0.13979
H         -1.07093        25.25062         0.44790
H         -0.93262        27.60589         1.02616
H          0.29785        29.82835         0.76493
H          3.70329         2.70995         1.78894
H          2.42502        31.05052         0.60960
H          5.96696         2.97545         2.31069
H          4.95579        30.98285        -0.00155
H          8.79443         2.98617         2.34307
H          7.49689        31.00376         0.26966
H         11.09758         2.77033         1.75620
H          9.92176        30.98216         0.41540
H         13.50554         2.77963         1.79776
H         12.36485        30.96961         0.60530
H         16.08152         2.83882         1.96184
H         15.06173        30.90686        -0.25896
H         18.53670         2.79720         1.81906
H         17.26812        30.68116        -0.68682
H         20.68100         3.97716         1.39865
H         21.90967         5.98046         0.67043
H         21.92598         8.32178        -0.06148
H         21.90889        10.18202        -0.32062
H         21.93281        12.57711        -0.69774
H         21.90420        14.46843        -1.47760
H         21.84625        16.89357        -1.28272
H         21.80112        18.79558        -0.99522
H         21.83275        21.12801        -0.30063
H         21.94544        22.60716         0.98088
H         21.99222        24.89416         1.97281
H         22.00377        27.34229         0.78226
H         21.85077        29.18817        -0.92131
H         19.68819        30.33354        -1.34368
