         477
 CSIRO Nanostructure Databank - Neutral Graphene Oxide Data Set
C         28.06015        27.27182         0.49917
C         28.00086        28.70277         0.40429
C         26.85198        29.38779         0.03587
C         27.97023        31.59116         0.13432
C         26.81929        30.79153        -0.04844
C         27.95583        32.99993        -0.02121
C         26.74035        33.74109        -0.09756
C         27.90059        35.93956        -0.16293
C         26.68318        35.10718        -0.15139
C         27.81705        37.36848         0.38543
C         26.63250        38.11591        -0.17463
C         27.83681        40.19773        -0.66289
C         26.66263        39.42157        -0.60390
C         27.80674        41.59543        -1.23495
C         26.63349        42.37790        -0.69280
C         27.82063        44.51171        -0.86318
C         26.65658        43.73551        -0.57843
C         27.82339        45.90465        -0.81301
C         30.56539        27.29035         0.44951
C         29.23587        26.60547         0.65019
C         30.50021        28.76167         0.77618
C         29.18057        29.47395         0.92280
C         30.37648        31.63340         0.69611
C         29.22770        30.92715         0.48643
C         30.35831        33.15217         0.77567
C         29.29249        33.70579        -0.18718
C         30.40036        35.97656         0.47220
C         29.21004        35.23015        -0.12067
C         30.40419        37.42661         0.04625
C         29.13761        38.14631         0.23251
C         30.36781        40.24753        -0.65418
C         29.10443        39.61686        -0.22978
C         30.30712        41.65532        -0.95686
C         29.10718        42.33240        -1.02476
C         30.29115        44.52065        -0.55068
C         29.10858        43.82879        -1.25491
C         30.28049        46.02419        -0.77417
C         29.01455        46.64511        -0.89103
C         32.97157        24.57096         1.68044
C         31.80686        25.21634         1.26401
C         32.93660        27.35924         1.36469
C         31.75903        26.60483         1.09702
C         32.91220        28.79479         1.22943
C         31.65903        29.46031         1.04729
C         32.91094        31.70032         1.00444
C         31.60723        30.94247         1.13662
C         32.89380        33.10483         0.54789
C         31.69654        33.82469         0.48647
C         32.85107        35.92740        -0.15382
C         31.68558        35.22675         0.21749
C         32.82025        37.33401        -0.36736
C         31.59435        38.08912        -0.25547
C         32.82077        40.23603        -0.64649
C         31.59012        39.53742        -0.54335
C         32.88248        41.66806        -0.99332
C         31.56544        42.41758        -1.17395
C         32.78008        44.54210        -0.80128
C         31.59280        43.86826        -0.94682
C         32.74980        45.97732        -0.31524
C         31.48560        46.72582        -0.67113
C         32.72560        48.83797        -0.71754
C         31.55082        48.16349        -0.63245
C         35.50923        23.23002         2.26872
C         35.40671        24.60116         2.29396
C         34.16253        25.29008         1.92109
C         35.34701        27.50677         1.98442
C         34.12827        26.69300         1.76878
C         35.36021        28.85521         1.41279
C         34.14051        29.54602         1.21189
C         35.45053        31.67589         0.88394
C         34.14858        30.92863         0.91164
C         35.35361        33.03679         0.22484
C         34.14968        33.72231         0.20289
C         35.42552        35.87944        -0.29770
C         34.10500        35.12835        -0.28638
C         35.38343        37.36916        -0.36743
C         34.07778        38.08984        -0.55367
C         35.23275        40.28561        -0.23682
C         34.05680        39.57292        -0.39706
C         35.25365        41.77761        -0.01701
C         34.05475        42.46407        -0.61981
C         35.21731        44.59930        -0.04331
C         34.03712        43.83698        -0.65271
C         35.20940        46.05965        -0.45824
C         34.03650        46.71049        -0.64329
C         35.26806        48.92564        -0.87387
C         33.99149        48.14165        -1.14050
C         35.30024        50.32891        -0.94091
C         37.91485        23.20729         2.69106
C         36.74406        22.53574         2.48390
C         37.92837        24.68237         2.86575
C         36.60071        25.39062         2.68937
C         37.99611        27.60383         2.24950
C         36.63358        26.87534         2.42526
C         37.92672        28.70570         1.19501
C         36.62237        29.40012         0.92358
C         37.95678        31.50346         0.27537
C         36.63026        30.81434         0.43388
C         37.95890        33.00411         0.10784
C         36.64381        33.73666        -0.03637
C         37.84447        35.88458         0.39352
C         36.66699        35.20630         0.12857
C         37.80887        37.36726         0.54764
C         36.50992        38.10542         0.26805
C         37.76532        40.28847        -0.09705
C         36.46771        39.59748         0.18925
C         37.81622        41.75564        -0.21553
C         36.53020        42.44187        -0.59252
C         37.76226        44.57980        -0.29985
C         36.55831        43.92435        -0.31633
C         37.79550        46.06517        -0.22102
C         36.48795        46.80425        -0.37532
C         37.71964        48.92993        -0.74420
C         36.49183        48.23948        -0.74145
C         37.72776        50.34367        -0.67589
C         36.49258        51.02300        -0.76538
C         40.48007        20.16745         0.37499
C         39.60915        20.70771         1.25695
C         40.71333        22.91249         1.13552
C         39.80310        22.07162         1.72891
C         40.93505        24.27236         1.54707
C         39.16896        25.44226         2.54454
C         40.43920        27.34941         1.50825
C         39.22330        26.70882         2.00990
C         40.42029        28.72522         1.22111
C         39.19269        29.47319         1.05790
C         40.40865        31.61261         0.87374
C         39.19662        30.82086         0.71981
C         40.34535        33.05756         0.80359
C         39.16502        33.76275         0.50540
C         40.34550        35.94131         0.56642
C         39.11431        35.19635         0.52758
C         40.43675        37.45851         0.73749
C         39.08221        38.15317         0.60582
C         40.29934        40.31178        -0.11120
C         39.04851        39.53827         0.02236
C         40.29079        41.69003        -0.24257
C         39.02533        42.42521        -0.25398
C         40.25256        44.56473        -0.46054
C         39.04185        43.87663        -0.37283
C         40.27317        46.03295        -0.57859
C         39.04890        46.75607        -0.55867
C         40.22931        48.91577        -0.59960
C         38.99902        48.18356        -1.02402
C         40.21034        50.29281        -0.35199
C         38.98336        51.04902        -0.43840
C         40.22168        53.09381         0.04709
C         39.02561        52.43602        -0.24869
C         42.43913        20.48091        -1.24933
C         41.72343        20.94867        -0.00763
C         42.62626        23.26199        -0.45152
C         41.39380        22.44304        -0.13730
C         42.72944        24.57370        -0.03662
C         41.73902        25.15669         0.87979
C         42.68448        27.39210         0.37966
C         41.81211        26.60526         1.37794
C         42.84493        28.82315         0.80532
C         41.66196        29.49080         1.05837
C         42.89908        31.65807         1.26036
C         41.61617        30.93602         1.11160
C         42.89882        33.15426         1.17383
C         41.57323        33.84776         0.98346
C         42.82858        36.03820         0.57801
C         41.55300        35.27102         0.61616
C         42.80254        37.32397        -0.20445
C         41.49950        38.04757        -0.19867
C         42.79827        40.26017        -0.59495
C         41.48771        39.52281        -0.46637
C         42.77584        41.72367        -0.44062
C         41.54134        42.41908        -0.38828
C         42.75104        44.53355        -0.56947
C         41.51764        43.84616        -0.46687
C         42.79807        46.00791        -0.92546
C         41.49064        46.71201        -0.69127
C         42.72025        48.87637        -0.19380
C         41.53171        48.21171        -0.85003
C         42.67628        50.24597         0.03076
C         41.44548        50.98272        -0.06751
C         42.66174        53.08742         0.46257
C         41.43172        52.38471         0.14490
C         43.44482        21.23151        -1.72404
C         45.00755        23.33156        -1.45809
C         43.76471        22.53935        -1.08072
C         44.90539        24.79221        -1.23291
C         43.90079        25.35860        -0.40767
C         45.13020        27.48401        -0.35152
C         43.97289        26.72602        -0.04916
C         45.26698        28.86753         0.06132
C         44.21983        29.40872         1.00327
C         45.42971        31.67042         0.69555
C         44.21223        30.93008         1.11005
C         45.43762        33.12817         0.73771
C         44.10394        33.81785         0.51505
C         45.40266        36.07290         0.46783
C         44.12657        35.32881         0.74336
C         45.38288        37.40640        -0.16784
C         44.09318        38.01919        -0.68938
C         45.25064        40.23651        -0.51088
C         44.07469        39.53287        -0.47033
C         45.27642        41.68989        -0.54096
C         44.01229        42.41283        -0.48389
C         45.23170        44.58868        -0.56532
C         43.96612        43.82714        -0.54124
C         45.14709        45.94011         0.07020
C         43.93706        46.74384        -0.22116
C         45.02598        48.71568         0.89409
C         43.90630        48.08814         0.06312
C         45.16303        50.21196         0.65903
C         43.93556        50.99363         0.28159
C         43.84559        52.44271         0.53527
C         47.36699        23.16290        -2.44980
C         46.12302        22.67508        -2.20879
C         47.66037        24.59285        -2.39810
C         45.83422        25.69327        -1.78004
C         47.34485        27.68265        -1.69061
C         46.11824        26.92349        -1.20160
C         47.64480        28.83761        -0.69475
C         46.41669        29.57606        -0.19337
C         47.79523        31.65672         0.06455
C         46.52615        30.97484         0.19091
C         47.90320        33.04670         0.64574
C         46.61374        33.81470         0.57950
C         47.89937        35.95476        -0.06211
C         46.68864        35.30042         0.49198
C         47.86489        37.38356        -0.37744
C         46.56064        38.05303        -0.43595
C         47.78616        40.25726        -0.98695
C         46.50436        39.48950        -0.81402
C         47.76981        41.68633        -0.60369
C         46.50656        42.36708        -0.56670
C         47.77190        44.50397        -0.04105
C         46.53686        43.84676        -0.53208
C         47.72763        45.91213         0.32468
C         46.41391        46.59250         0.50859
C         47.52298        48.72186         1.08964
C         46.38937        48.04906         0.75131
C         47.47354        50.13351         1.45266
C         46.34541        50.85457         1.29226
C         49.92287        24.62084        -1.49140
C         48.69594        25.30977        -1.85922
C         49.98461        27.50460        -1.55460
C         48.66746        26.82614        -1.85032
C         50.07121        28.94078        -1.19597
C         48.79532        29.74537        -1.19819
C         50.21756        31.65670        -0.33284
C         48.91833        31.02130        -0.40665
C         50.25491        33.06520        -0.07368
C         49.08240        33.79184         0.07892
C         50.27275        35.82022        -0.76176
C         49.05535        35.20292        -0.18233
C         50.28383        37.30348        -0.93936
C         49.02296        38.04989        -0.74756
C         50.30957        40.22791        -0.51602
C         49.11755        39.51936        -1.15711
C         50.22704        41.59791        -0.25763
C         48.97277        42.34097        -0.29345
C         50.21094        44.47046         0.31053
C         48.94730        43.76596         0.01157
C         50.17923        45.93964         0.62006
C         48.86323        46.60748         0.65091
C         49.66046        48.18108         2.33381
C         48.88762        48.07659         1.03174
C         51.09130        25.24000        -1.22986
C         52.46041        27.39022        -1.70334
C         51.20930        26.72920        -1.06878
C         52.54050        28.82910        -1.22168
C         51.32231        29.55344        -1.02211
C         52.68423        31.61947        -0.54393
C         51.39153        30.95573        -0.63928
C         52.76620        32.95421        -0.18857
C         51.55481        33.77901         0.11896
C         52.84298        35.88734        -0.50600
C         51.58226        35.11190        -0.61682
C         52.83460        37.24845        -0.43860
C         51.59788        38.03927        -0.71678
C         52.68665        40.06066         0.19742
C         51.54156        39.48375        -0.34681
C         52.72695        41.52038         0.39231
C         51.46976        42.32835         0.08462
C         52.46995        44.22548         1.34376
C         51.40341        43.67430         0.67442
C         52.34505        45.58464         1.94886
C         51.33469        46.60002         1.38542
C         50.80351        47.50046         2.48010
C         54.92878        27.26901        -1.36421
C         53.74404        26.63095        -1.50606
C         55.00772        28.70268        -1.21892
C         53.80235        29.46977        -1.07789
C         55.18444        31.50510        -0.70792
C         53.89816        30.86480        -0.77908
C         55.28942        32.88778        -0.38375
C         54.06935        33.65267         0.05604
C         55.32260        35.76733         0.04110
C         54.12218        35.07598        -0.59585
C         55.29432        37.25602         0.20100
C         54.12914        38.04015        -0.38727
C         55.02983        39.96606         0.95171
C         53.94778        39.36554         0.33959
C         54.80002        41.18509         1.83197
C         53.74298        42.11194         1.26465
C         54.79814        44.05790         2.32571
C         53.65937        43.43553         1.64663
C         54.76587        45.35679         2.73946
C         53.52363        46.13773         2.68579
C         56.25807        29.35032        -1.16421
C         56.34858        30.71395        -0.94801
C         56.51690        33.60955        -0.27899
C         56.55759        34.95586        -0.00102
C         56.50497        38.06836         0.46764
C         56.34412        39.35124         0.86748
C         56.04122        41.94114         2.23215
C         56.01046        43.26240         2.48501
O         37.11372        46.63867         0.95830
O         45.53111        45.88894         1.50272
O         43.49082        35.96318         1.88699
O         40.93674        37.71397         2.02297
O         46.94654        39.90901        -2.14927
O         36.17089        38.90369         1.45159
O         34.86115        35.28911        -1.51553
O         52.55217        42.21659        -0.89583
O         46.23396        36.02735         1.69457
O         37.44571        33.36603        -1.21586
O         37.13360        25.10835         4.02744
O         34.96956        37.79163        -1.69990
O         37.23050        28.40370        -0.03652
O         43.83223        33.61496        -0.86370
O         35.81017        27.54977         3.43536
O         39.10096        22.48106         2.87410
O         46.57991        25.34139        -2.91271
O         38.33007        37.89115         1.81469
O         46.02660        44.49738        -1.77807
O         51.09128        37.75196        -2.06185
O         34.99622        44.54803         1.37622
O         52.39873        45.54330         3.41344
O         40.31614        24.67617         2.73861
O         41.83543        37.19772        -1.31692
O         42.26555        33.72979         2.31860
O         54.95955        36.38352         1.32976
O         29.18558        39.22730         1.21670
O         49.51198        27.32361        -2.94052
O         43.70584        31.28869         2.44479
O         28.73841        35.81606        -1.37575
O         37.22058        30.91825        -0.86785
O         42.01859        39.83719        -1.79078
O         50.58189        45.49778        -0.71850
O         50.88189        35.08707        -1.88641
O         32.32290        41.95447        -2.33157
O         44.97867        50.63062        -0.72220
O         32.20502        31.52734         2.34342
O         38.34845        39.59164        -1.28482
O         44.92886        22.56161        -0.18399
O         54.49238        38.32234        -1.76783
H         53.76836        38.84863        -2.17136
O         36.40465        42.27158        -2.04049
H         37.27779        42.43893        -2.45409
O         48.18731        28.17270         0.49382
H         47.49691        28.16082         1.19184
O         43.07475        46.04788        -2.35793
H         42.86204        46.96627        -2.66241
O         44.63193        48.53080         2.28330
H         44.72958        47.56763         2.47352
O         48.21409        32.88160         2.08263
H         47.88357        33.67852         2.55103
O         30.18649        36.02106         1.91551
H         30.88231        36.58576         2.31153
O         49.62476        48.79847         0.01376
H         50.56541        48.49051         0.04013
O         52.04163        47.42338         0.41419
H         52.03277        46.91550        -0.43207
O         35.79788        31.95685         2.29798
H         34.97255        32.20482         2.76897
O         29.75851        33.36597        -1.51742
H         29.33705        34.00484        -2.13697
O         54.37314        34.86570        -2.00204
H         54.16314        35.69291        -2.48582
O         39.05048        48.09965        -2.55632
H         38.60145        48.89984        -2.90801
O         27.64299        41.50286        -2.69360
H         27.88022        42.38445        -3.06447
O         52.22646        27.41896        -3.13928
H         52.98095        27.87877        -3.56257
O         41.87319        27.40905        -0.84326
H         42.31763        27.98502        -1.50047
O         32.67416        45.85193         1.14555
H         33.53532        45.39343         1.43728
O         29.25376        44.01366        -2.69668
H         30.13309        43.66037        -2.95738
O         30.14831        44.31813         0.87909
H         30.91740        44.77679         1.30206
O         40.44789        22.58268        -1.23498
H         40.34089        23.53802        -1.42615
O         44.16353        37.84116        -2.12273
H         43.25834        38.01534        -2.47601
O         29.96214        33.43742         2.13322
H         30.65706        33.06381         2.72010
O         49.41558        39.55674        -2.57273
H         48.56165        39.42773        -3.04722
O         48.58880        30.19655        -2.55613
H         48.42855        29.40476        -3.12490
O         42.63810        20.82525         1.11165
H         43.04662        19.93604         1.08687
O         47.00434        28.18889        -2.99377
H         46.89457        27.40959        -3.58288
O         38.28056        28.27386         3.49927
H         37.44954        28.27428         4.03119
O         42.43394        26.61345         2.66922
H         41.90306        26.03451         3.25959
O         28.94561        29.53408         2.38221
H         29.66262        30.07939         2.77343
O         27.55651        37.21955         1.80531
H         27.85341        38.05455         2.23356
O         51.32329        26.98074         0.35672
H         50.46939        26.75409         0.78214
O         44.65123        28.89626         2.30568
H         44.18962        29.44513         2.98298
O         41.74141        48.39380        -2.31494
H         40.85498        48.20588        -2.73125
O         54.22029        33.79819         1.49247
H         53.39335        34.21839         1.83684
O         35.23312        41.92869         1.41345
H         35.14173        42.91915         1.61874
O         54.23023        40.63947         3.07349
H         54.13319        41.38356         3.70524
O         33.91687        48.03393        -2.60864
H         33.81750        48.94010        -2.96961
O         51.58253        34.15366         1.54974
H         51.23486        33.39367         2.06524
O         30.82707        27.21305        -1.00526
H         31.02621        26.27762        -1.22213
H         27.11403        26.70845         0.46191
H         25.94947        28.81976        -0.23556
H         25.87397        31.26410        -0.34865
H         25.78850        33.19282        -0.03859
H         25.70140        35.59965        -0.12072
H         25.65787        37.61079        -0.12026
H         25.72286        39.86635        -0.96296
H         25.71283        41.83694        -0.43148
H         25.75645        44.26631        -0.23025
H         26.87097        46.44035        -0.68158
H         29.21268        25.50924         0.74122
H         28.94653        47.74195        -0.93243
H         32.94508        23.48079         1.80490
H         30.91825        24.60175         1.06192
H         32.71893        49.93312        -0.61404
H         30.62115        48.73386        -0.48087
H         34.63432        22.61499         2.02062
H         34.37235        50.90277        -1.07525
H         36.75338        21.44026         2.41193
H         36.46073        52.12002        -0.73418
H         40.37369        19.12072         0.05009
H         38.75883        20.13061         1.64822
H         40.22009        54.18125         0.20700
H         38.10591        53.03192        -0.31895
H         42.16804        19.52415        -1.72185
H         42.60570        54.17208         0.63613
H         44.02223        20.90636        -2.60274
H         44.76927        52.99967         0.74414
H         48.15683        22.46199        -2.76461
H         45.99855        21.58444        -2.30580
H         48.39079        50.60316         1.83492
H         46.33259        51.93128         1.51286
H         49.89252        23.52050        -1.52220
H         49.29041        48.83096         3.14148
H         51.97314        24.63040        -0.98435
H         51.37940        47.56985         3.41493
H         55.86782        26.69585        -1.33089
H         53.72631        25.53882        -1.63141
H         55.66764        45.82333         3.16292
H         53.60221        47.23751         2.80923
H         57.17347        28.75506        -1.29346
H         57.34047        31.18342        -0.91643
H         57.47169        33.07532        -0.39528
H         57.52950        35.45111         0.14372
H         57.49903        37.59875         0.46078
H         57.22808        39.94200         1.14442
H         56.96091        41.37755         2.44253
H         56.90971        43.77702         2.85678
