         424
 CSIRO Nanostructure Databank - Neutral Graphene Oxide Data Set
C          1.14727         2.19479         0.74647
C          1.11960         3.58842         0.68398
C          2.35643         1.50165         0.71566
C          2.31710         4.33732         0.59890
C          1.13638         6.54900         0.64152
C          1.17128         7.93068         0.61968
C          2.32374         5.78534         0.52608
C          2.38590         8.64175         0.45360
C          1.41614        10.77810         1.25303
C          1.49893        12.18916         1.50291
C          2.39845        10.09799         0.57939
C          2.54827        12.95365         1.07699
C          1.52672        15.14773         1.74021
C          1.65031        16.49545         2.03963
C          2.66016        14.37377         1.40152
C          2.91916        17.11963         2.04452
C          3.05095        18.52235         2.33109
C          3.58171         2.20190         0.64614
C          3.55947         3.64085         0.60831
C          4.81321         1.49706         0.53742
C          4.78448         4.36177         0.48651
C          3.55197         6.47437         0.30776
C          3.58152         7.90923         0.24248
C          4.77601         5.73011         0.24788
C          4.84870         8.59616         0.07202
C          3.57128        10.84758         0.05681
C          3.62205        12.38294         0.17514
C          4.84376        10.06999        -0.11005
C          5.00158        12.91533         0.55879
C          3.94131        14.97510         1.40580
C          4.07800        16.34812         1.75135
C          5.11748        14.17774         1.08949
C          5.37581        16.98108         1.77477
C          4.27205        19.13243         2.32466
C          5.47364        18.38574         2.05594
C          6.05250         2.15864         0.51898
C          6.07293         3.64346         0.80920
C          7.26663         1.47332         0.44054
C          7.31798         4.32494         0.29998
C          6.00499         6.41173        -0.29517
C          6.03916         7.90338        -0.06484
C          7.30265         5.70507        -0.00284
C          7.29743         8.58430        -0.25906
C          6.13441        10.79246        -0.07836
C          6.19334        12.15206         0.20981
C          7.34795        10.01790        -0.26887
C          7.47326        12.83970         0.19519
C          6.46801        14.72082         1.49398
C          6.54503        16.23132         1.54022
C          7.61068        14.10639         0.72253
C          7.81187        16.85776         1.56109
C          6.72956        18.99766         2.11229
C          7.91361        18.25691         1.87582
C          8.53109         2.15768         0.48257
C          8.52535         3.61481         0.33442
C          9.72701         1.47861         0.58427
C          9.76173         4.29263         0.09105
C          8.50201         6.39748        -0.23537
C          8.49453         7.83522        -0.39563
C          9.74889         5.69206        -0.21275
C          9.73377         8.50992        -0.58652
C          8.56978        10.67928        -0.43851
C          8.61192        12.18728        -0.55262
C          9.76134         9.93011        -0.62679
C          9.96235        12.74497        -0.17401
C          8.89479        14.76539         0.77628
C          9.01416        16.10979         1.29124
C         10.05510        14.06205         0.39131
C         10.27539        16.71294         1.47136
C          9.18872        18.86283         1.94610
C         10.37148        18.11894         1.75614
C         11.01963         2.21489         0.79808
C         10.99060         3.60487         0.20811
C         12.26120         1.46317         0.39660
C         12.20599         4.27577        -0.03800
C         10.96689         6.36398        -0.47768
C         10.96259         7.78726        -0.69910
C         12.20563         5.65819        -0.40547
C         12.16663         8.46737        -0.98096
C         11.00816        10.59590        -0.79679
C         11.10049        11.99658        -0.44878
C         12.18388         9.87236        -1.04813
C         12.41808        12.50559        -0.12849
C         11.34321        14.54269         0.81360
C         11.50459        15.90113         1.38776
C         12.40238        13.65585         0.72065
C         12.88907        16.67917         1.27970
C         11.62460        18.79420         1.66460
C         12.81234        18.15939         1.26805
C         13.44805         2.12809         0.19540
C         13.46058         3.59295         0.08774
C         14.69249         1.43559        -0.03152
C         14.66139         4.29694         0.00878
C         13.44104         6.32337        -0.62848
C         13.40632         7.67013        -1.30191
C         14.66509         5.68601        -0.35881
C         14.68149         8.46378        -1.17233
C         13.42126        10.64100        -1.44164
C         13.59258        11.92640        -0.63345
C         14.67702         9.80978        -1.36605
C         14.88421        12.60564        -0.73777
C         14.26396        14.67182         0.55798
C         14.08102        16.08824         0.62810
C         15.04654        14.02754        -0.38685
C         15.06078        16.88338         0.02813
C         13.92627        18.91266         0.84038
C         15.06815        18.31889         0.23663
C         15.90817         2.10582        -0.00067
C         15.90457         3.54988         0.46323
C         17.14119         1.43829        -0.18091
C         17.20863         4.29725         0.19239
C         15.90864         6.42846        -0.51928
C         15.93334         7.74768        -0.96359
C         17.18584         5.76749        -0.18945
C         17.18756         8.47899        -1.09680
C         15.91892        10.53395        -1.80166
C         15.93194        11.98834        -1.40688
C         17.20402         9.84819        -1.40731
C         17.13462        12.72821        -1.93652
C         16.12161        14.82018        -0.95118
C         16.15652        16.25694        -0.67420
C         17.18833        14.17276        -1.53838
C         17.25320        17.02127        -1.05590
C         16.20685        19.05633        -0.11725
C         17.34720        18.43927        -0.73022
C         18.38143         2.11557        -0.21612
C         18.42857         3.54157        -0.13470
C         19.60825         1.40014        -0.39636
C         19.63380         4.22730        -0.40199
C         18.43812         6.39369        -0.64577
C         18.43040         7.77475        -0.96626
C         19.64118         5.65920        -0.60535
C         19.66645         8.46925        -1.14956
C         18.42376        10.58635        -1.47963
C         18.44143        12.00029        -1.67988
C         19.66847         9.88713        -1.34690
C         19.65232        12.71654        -1.73173
C         18.39665        14.89604        -1.93747
C         18.40230        16.38390        -1.72047
C         19.68645        14.15554        -1.91009
C         19.73593        17.05640        -1.48974
C         18.49116        19.16554        -1.04776
C         19.63292        18.55670        -1.83420
C         20.81961         2.05447        -0.51324
C         20.85052         3.48645        -0.54672
C         22.08357         1.24993        -0.75710
C         22.08239         4.18110        -0.72508
C         20.87446         6.32399        -0.89601
C         20.88971         7.74918        -1.10516
C         22.07260         5.57901        -0.92281
C         22.12564         8.46101        -1.21309
C         20.89606        10.59626        -1.43145
C         20.90659        12.01851        -1.61679
C         22.12931         9.88178        -1.32657
C         22.13216        12.72331        -1.69818
C         20.88392        14.85259        -1.94328
C         20.88657        16.34570        -2.22910
C         22.14540        14.15888        -1.85405
C         22.18236        17.03904        -1.88966
C         20.97524        19.19952        -1.61422
C         22.16165        18.47679        -1.70417
C         23.36413         2.02915        -0.54982
C         23.33946         3.44769        -0.61786
C         24.57822         1.36711        -0.37643
C         24.54638         4.15988        -0.43899
C         23.36667         6.24925        -1.30594
C         23.36778         7.75809        -1.18198
C         24.49643         5.63215        -0.51777
C         24.56940         8.45683        -1.14700
C         23.36496        10.59355        -1.35195
C         23.37800        12.01447        -1.54694
C         24.58932         9.88517        -1.21479
C         24.60744        12.70282        -1.58636
C         23.35519        14.87503        -1.88143
C         23.37443        16.31788        -1.83420
C         24.65198        14.13183        -2.07193
C         24.63658        17.01574        -1.67054
C         23.41864        19.15189        -1.57468
C         24.62841        18.45806        -1.57493
C         25.80736         2.07319        -0.23380
C         25.77640         3.50250        -0.23258
C         27.06144         1.40138        -0.15215
C         27.00862         4.25535        -0.05590
C         25.76237         6.39078        -0.41136
C         25.87790         7.70415        -1.14892
C         26.99879         5.64277        -0.14586
C         27.06786         8.51696        -0.69727
C         25.82491        10.60430        -1.17324
C         25.82448        12.01343        -1.35035
C         27.06117         9.91708        -0.90829
C         27.07826        12.73104        -1.32073
C         25.88497        14.87996        -1.62531
C         25.85435        16.31775        -1.57219
C         27.06691        14.18514        -1.41332
C         27.09148        17.03965        -1.39001
C         25.86624        19.16265        -1.45520
C         27.08232        18.49136        -1.36953
C         28.27780         2.09937        -0.06264
C         28.26778         3.54466         0.05233
C         29.53552         1.42798        -0.10515
C         29.47946         4.23953         0.14445
C         28.18046         6.44841         0.13792
C         28.23210         7.87274        -0.26288
C         29.49063         5.69448         0.33477
C         29.46539         8.58304        -0.17243
C         28.28427        10.63968        -0.83081
C         28.27174        12.04375        -1.10110
C         29.49937         9.96056        -0.50121
C         29.58101        12.73601        -1.34563
C         28.31958        14.90449        -1.23093
C         28.29910        16.35488        -1.24937
C         29.51502        14.22201        -1.11492
C         29.53875        17.08455        -1.05237
C         28.31966        19.20462        -1.27371
C         29.53664        18.54774        -1.11760
C         30.75534         2.11971        -0.10745
C         30.74442         3.57261         0.00640
C         32.00840         1.44403        -0.16428
C         31.93675         4.29972         0.02184
C         30.73285         6.45259         0.16753
C         30.70351         7.86638         0.08908
C         31.94914         5.73500         0.13720
C         31.92838         8.57910         0.15958
C         30.74565        10.70294        -0.42197
C         30.77572        12.06013        -0.71604
C         31.95542        10.00602         0.00656
C         31.96544        12.84327        -0.47102
C         30.82576        14.95581        -1.20873
C         30.72082        16.41480        -0.84934
C         31.97144        14.21044        -0.55514
C         31.92387        17.18453        -0.36128
C         30.78988        19.24451        -1.15715
C         32.00108        18.59078        -0.91464
C         33.23418         2.13192        -0.17458
C         33.23329         3.63356        -0.36055
C         34.47149         1.47091        -0.17511
C         34.45026         4.31432         0.21975
C         33.17494         6.45056         0.26404
C         33.15630         7.87015         0.33594
C         34.41475         5.74196         0.42528
C         34.36990         8.59270         0.55219
C         33.15544        10.69223         0.19082
C         33.27647        12.11521        -0.26610
C         34.36432        10.01477         0.56241
C         34.30150        12.89494         0.52505
C         33.09723        15.01857         0.05914
C         33.20092        16.38117        -0.61161
C         34.41987        14.31100         0.17180
C         34.47538        17.11997        -0.29362
C         33.26393        19.22560        -0.88724
C         34.46753        18.55603        -0.54581
C         35.69870         2.18652        -0.02987
C         35.62891         3.59897         0.30523
C         36.95081         1.56170        -0.10047
C         36.85053         4.24532         0.80176
C         35.58175         6.47023         0.72013
C         35.59658         7.89882         0.75183
C         36.81988         5.75617         1.02281
C         36.80185         8.62258         1.01476
C         35.56058        10.71733         0.89291
C         35.51357        12.18161         1.04097
C         36.77763        10.04915         1.14301
C         36.78310        12.93656         1.12471
C         35.61378        14.99019         0.29572
C         35.63018        16.42643        -0.02740
C         36.80554        14.27630         0.75105
C         36.96257        17.11592        -0.19870
C         35.66739        19.27492        -0.34952
C         36.88054        18.62433        -0.05297
C         38.17625         2.27325         0.09772
C         38.15055         3.62549         0.52096
C         39.44776         1.64619        -0.07957
C         39.34158         4.36984         0.70729
C         38.08373         6.50006         1.01843
C         38.04654         7.90367         1.11176
C         39.31421         5.78311         1.00438
C         39.23622         8.60677         1.48748
C         37.95825        10.79588         1.59374
C         37.96970        12.21334         1.57778
C         39.12661         9.96858         1.92571
C         39.09924        13.08001         1.99924
C         38.14090        14.97621         0.61120
C         37.98664        16.51325         0.77626
C         39.19241        14.43480         1.56293
C         39.35049        17.20203         0.62161
C         38.03548        19.34991         0.25659
C         39.26187        18.72276         0.59953
C         40.61504         2.34119         0.14767
C         40.59653         3.71427         0.53409
C         41.79381         4.45352         0.74107
C         40.52640         6.48820         1.22508
C         40.45857         7.87905         1.63092
C         41.75860         5.78660         1.09963
C         41.55466         8.49695         2.27813
C         40.15735        10.39927         2.77750
C         40.05033        12.68151         2.96764
C         41.37611         9.71449         2.91697
C         41.11241        13.48648         3.38574
C         40.25464        15.26555         1.99325
C         40.29737        16.76263         1.74115
C         41.21754        14.77827         2.88905
C         41.64870        17.39041         1.47554
C         40.44802        19.41061         0.80158
C         41.66690        18.69471         1.09184
O         12.41906        16.05837         2.50842
O          3.98313        10.42622        -1.29100
O         17.36807         5.33275         1.22494
O         24.81354         6.36467         0.71230
O         18.19297        15.84642        -3.07004
O         39.92145        11.46873         3.64831
O         34.40891        12.61665         1.95586
O         13.55560        13.89088         1.47499
O         36.72206         4.80940         2.14995
O         28.71325         6.18377         1.48226
O         33.86881        12.03204        -1.61141
H         33.18938        11.66144        -2.21408
O         20.70165        16.49410        -3.66944
H         19.81825        16.08886        -3.87511
O         29.81714        12.56959        -2.81925
H         29.00273        12.88165        -3.27235
O         24.80838        14.02179        -3.54746
H         23.95559        13.69430        -3.90631
O         23.61242         5.92477        -2.70800
H         22.88071         6.30447        -3.23759
O         33.30848        16.12533        -2.03197
H         33.24513        16.97988        -2.50709
O         13.23138        11.04292        -2.84786
H         12.84910        10.26942        -3.31634
O          3.34020        12.91943        -1.14893
H          3.63676        12.23269        -1.79198
O         39.84393        17.34475         3.01248
H         39.88323        18.32165         2.91610
O         15.77933         3.45031         1.91521
H         16.17778         4.27436         2.28208
O          6.65214        14.28452         2.89174
H          7.51629        14.63681         3.19491
O         38.57518        14.66567        -0.75225
H         38.75815        13.70299        -0.78874
O         33.34238         3.83882        -1.82219
H         32.59553         3.35702        -2.23759
O         13.31585         7.37664        -2.75073
H         12.56690         6.75444        -2.87328
O          8.41373        12.50335        -1.97798
H          7.53133        12.15794        -2.23160
O         15.87399        10.45425        -3.26365
H         15.00164        10.83714        -3.52661
O         26.17953         7.33797        -2.53456
H         26.19088         8.16052        -3.06741
O          5.86008         6.28714        -1.76607
H          5.07341         6.81367        -2.02615
O         31.76207        17.39545         1.06941
H         30.93730        17.90748         1.20163
O         20.03947        16.93743        -0.07983
H         19.44386        17.54251         0.41260
O         19.30724        18.73138        -3.24112
H         19.94495        18.17028        -3.75036
O         37.43267        16.75811         2.08000
H         38.16741        16.79686         2.74239
O         32.72168        15.18369         1.45710
H         33.01109        14.38532         1.95143
O         37.38632        16.88801        -1.57532
H         37.48443        15.91256        -1.69315
O         11.12918         2.40625         2.26712
H         12.00761         2.81004         2.43830
O         22.07960         0.05061         0.02449
H         22.10759         0.30193         0.97024
O          6.16663         3.74127         2.27768
H          6.96321         3.23815         2.55268
O         17.01076        12.77868        -3.40237
H         16.21039        13.30348        -3.61485
O         39.95856        16.81476        -0.62428
H         39.28289        16.96639        -1.32886
O         31.12230        14.94942        -2.65889
H         30.95327        14.02571        -2.97409
H          0.20173         1.63771         0.80601
H          0.14674         4.09806         0.68993
H          2.36393         0.40253         0.74128
H          0.16881         6.04763         0.77751
H          0.23009         8.48648         0.72973
H          0.56258        10.23654         1.68328
H          0.70649        12.64034         2.11749
H          0.52965        14.68566         1.73104
H          0.75659        17.09272         2.27123
H          2.14117        19.10089         2.54883
H          4.78817         0.39918         0.45606
H          4.35952        20.20758         2.53914
H          7.26434         0.37389         0.37967
H          6.80434        20.06650         2.36190
H          9.72643         0.38062         0.66457
H          9.25933        19.94285         2.14298
H         12.25399         0.36333         0.44751
H         11.61822        19.89308         1.73169
H         14.66926         0.35096        -0.21839
H         13.88815        20.00827         0.93805
H         17.13263         0.34907        -0.34052
H         16.23430        20.13723         0.08523
H         19.58298         0.30096        -0.42936
H         18.51125        20.24700        -0.84238
H         22.06281         0.91683        -1.83491
H         21.02597        20.29217        -1.48597
H         24.58622         0.26709        -0.35265
H         23.42313        20.24700        -1.46834
H         27.07830         0.30231        -0.20999
H         25.84664        20.26216        -1.41641
H         29.54477         0.32947        -0.17640
H         28.29871        20.30307        -1.34040
H         32.01425         0.34291        -0.14883
H         30.78674        20.31579        -1.41248
H         34.49974         0.37115        -0.22207
H         33.31469        20.30653        -1.09600
H         37.00144         0.49142        -0.35133
H         35.64477        20.37582        -0.38132
H         39.48377         0.59248        -0.39203
H         37.98832        20.45127         0.25930
H         41.58648         1.84157         0.01917
H         42.76151         3.94667         0.61348
H         42.70675         6.32129         1.25031
H         42.50451         7.95906         2.39679
H         42.15856        10.13156         3.56397
H         41.81179        13.10769         4.14161
H         42.01714        15.44103         3.24610
H         42.58239        16.85210         1.69377
H         40.48516        20.50269         0.67184
H         42.62214        19.23169         0.99357
