         430
 CSIRO Nanostructure Databank - Neutral Graphene Oxide Data Set
C         28.01522        27.36233        -0.88005
C         28.01432        28.80993        -1.27467
C         26.74279        29.52497        -0.90962
C         27.94723        31.65068        -0.69905
C         26.72778        30.86199        -0.71792
C         27.92379        33.06064        -0.64324
C         26.69874        33.80682        -0.74460
C         27.87477        35.95286        -0.58715
C         26.67551        35.17316        -0.70661
C         27.82906        37.36302        -0.49585
C         26.62963        38.12578        -0.32815
C         27.85697        40.26308        -0.07020
C         26.63901        39.48863        -0.14964
C         27.87041        41.68062         0.13537
C         26.65424        42.46173         0.21198
C         27.93478        44.45883         0.96028
C         26.66655        43.77622         0.53615
C         27.94739        45.94245         0.72720
C         30.44550        27.39840        -0.56026
C         29.16561        26.71436        -0.60026
C         30.44850        28.82976        -0.58758
C         29.23959        29.54258        -0.78438
C         30.41950        31.67222        -0.43060
C         29.20361        30.94844        -0.65574
C         30.38933        33.09955        -0.34732
C         29.14940        33.79747        -0.49844
C         30.34739        35.91385        -0.29515
C         29.12809        35.22493        -0.49435
C         30.38078        37.37840        -0.41400
C         29.07840        38.13505        -0.52423
C         30.32993        40.26196        -0.12280
C         29.07978        39.57061        -0.18546
C         30.34726        41.68342        -0.04327
C         29.11835        42.38371         0.16313
C         30.37762        44.50285         0.30046
C         29.16232        43.78175         0.40776
C         30.38628        45.92068         0.48522
C         29.12004        46.61038         0.59850
C         32.89740        24.58759        -0.32349
C         31.71385        25.26556        -0.43719
C         32.90383        27.41098        -0.27259
C         31.66725        26.69566        -0.41681
C         32.90171        28.83602        -0.23318
C         31.67081        29.54553        -0.37270
C         32.88025        31.68447        -0.12584
C         31.65290        30.96795        -0.31619
C         32.85703        33.10199        -0.02818
C         31.60465        33.81474        -0.12411
C         32.79190        35.98713         0.11781
C         31.56578        35.23389        -0.06491
C         32.82577        37.37010         0.10997
C         31.52373        38.10132         0.25539
C         32.78953        40.23802        -0.21538
C         31.56027        39.55796        -0.09466
C         32.80159        41.66714        -0.26624
C         31.59073        42.38196        -0.10545
C         32.82234        44.52363        -0.13174
C         31.60645        43.81422         0.00456
C         32.83585        45.94599         0.10496
C         31.63103        46.62376         0.47599
C         32.92974        48.64862         0.87522
C         31.71672        47.99686         0.84027
C         35.42122        23.13395        -0.07095
C         35.37687        24.56203        -0.05703
C         34.14308        25.27311        -0.17493
C         35.36694        27.41814        -0.00204
C         34.13639        26.69975        -0.14894
C         35.36163        28.84734         0.04117
C         34.12980        29.55189        -0.06566
C         35.34291        31.69748         0.14861
C         34.11922        30.98201        -0.01107
C         35.31923        33.12285         0.22143
C         34.07694        33.79732         0.17868
C         35.34427        36.02442         0.35211
C         34.03016        35.24654         0.38874
C         35.30846        37.43615        -0.02324
C         34.05670        38.11664        -0.02494
C         35.23361        40.18977        -0.83054
C         34.01724        39.50395        -0.27317
C         35.24215        41.67571        -0.59787
C         34.06012        42.37357        -0.40413
C         35.27856        44.52552        -0.49624
C         34.05453        43.82354        -0.37001
C         35.22862        46.02296        -0.66469
C         34.05211        46.66493         0.02359
C         35.39536        48.71074         0.43002
C         34.12345        47.99935         0.45518
C         35.54753        49.90854         1.24305
C         37.85231        23.13596         0.16558
C         36.60346        22.45112         0.03451
C         37.83773        24.56868         0.19079
C         36.60343        25.27897         0.07869
C         37.82773        27.42895         0.23688
C         36.59743        26.70964         0.10447
C         37.82653        28.85881         0.27482
C         36.59340        29.56607         0.18745
C         37.81740        31.70578         0.37885
C         36.59034        30.99381         0.23949
C         37.81271        33.15178         0.33710
C         36.56637        33.85566         0.25424
C         37.79592        35.98055         0.02566
C         36.58523        35.26200         0.18142
C         37.78214        37.40043        -0.14072
C         36.53779        38.12123        -0.23963
C         37.75609        40.24082        -0.52502
C         36.53866        39.51648        -0.47852
C         37.77260        41.66098        -0.66031
C         36.49981        42.39300        -1.00174
C         37.74671        44.54955        -0.61285
C         36.50653        43.85082        -0.63366
C         37.73438        45.99920        -0.52462
C         36.55071        46.71674        -0.44616
C         37.76925        48.92625        -0.23150
C         36.51461        48.14132        -0.18042
C         37.73381        50.38737         0.23219
C         36.69262        50.62089         1.28933
C         40.27515        20.29194         0.40719
C         39.14087        20.98323         0.17558
C         40.29516        23.15111         0.46754
C         39.07772        22.42964         0.29379
C         40.29058        24.57898         0.42369
C         39.06223        25.29073         0.30993
C         40.28788        27.44191         0.45750
C         39.05698        26.72190         0.33196
C         40.29321        28.86855         0.50446
C         39.05788        29.57621         0.41179
C         40.29477        31.70559         0.65793
C         39.05250        31.00234         0.47001
C         40.26915        33.20662         0.88200
C         39.01902        33.87055         0.36349
C         40.26402        35.97155        -0.05609
C         39.03708        35.26992         0.11568
C         40.24942        37.38335        -0.27547
C         39.00529        38.10598        -0.26886
C         40.22958        40.23369        -0.49877
C         39.00171        39.52414        -0.41851
C         40.22906        41.66093        -0.52540
C         38.98013        42.38240        -0.58976
C         40.23598        44.51877        -0.41382
C         38.98042        43.82716        -0.59310
C         40.26463        45.92111        -0.29040
C         39.05689        46.69492        -0.76606
C         40.19888        48.68525         0.48536
C         39.05354        48.17731        -0.37082
C         40.25291        50.19156         0.58939
C         39.10549        50.94974         0.56197
C         40.35503        53.03911         0.87573
C         39.19231        52.40139         0.62416
C         42.77775        20.29968         0.40834
C         41.52053        20.96648         0.90182
C         42.74488        23.14617         0.65575
C         41.53096        22.45324         0.62969
C         42.74965        24.58358         0.62079
C         41.52306        25.29497         0.51065
C         42.74689        27.43984         0.59951
C         41.51569        26.72442         0.52300
C         42.73996        28.85651         0.75267
C         41.52751        29.58307         0.68818
C         42.73045        31.84070         1.18416
C         41.49682        31.02539         0.78521
C         42.75740        33.20500         0.52365
C         41.54394        33.88528         0.41860
C         42.73053        35.90606        -0.28930
C         41.51709        35.24945         0.00769
C         42.68835        37.29876        -0.86273
C         41.45619        38.08910        -0.50268
C         42.70594        40.21453        -0.72266
C         41.46593        39.50105        -0.57403
C         42.70785        41.64297        -0.63969
C         41.46779        42.36056        -0.50932
C         42.70973        44.47883        -0.24142
C         41.47557        43.78454        -0.37209
C         42.72825        45.89374        -0.06478
C         41.48815        46.60868        -0.06258
C         42.70647        48.72129         0.20906
C         41.50302        48.01927         0.14376
C         42.70331        50.16213         0.41333
C         41.54545        50.84157         0.70393
C         42.86735        52.97438         0.91256
C         41.58829        52.25582         1.24553
C         43.93823        20.98092         0.33733
C         45.21624        23.07949         0.71381
C         44.00654        22.41125         0.60824
C         45.22875        24.54731         1.07131
C         43.97746        25.30415         0.67020
C         45.24083        27.43794         0.43385
C         43.97184        26.69525         0.58390
C         45.27361        28.88075         0.65965
C         44.02312        29.56518         0.97652
C         45.28971        31.76496         0.63498
C         44.05286        31.07661         1.08505
C         45.24077        33.14077         0.24764
C         43.98885        33.85204         0.20640
C         45.20430        35.92977        -0.45862
C         43.96239        35.22465        -0.19756
C         45.20112        37.34723        -0.64797
C         43.96562        38.07120        -0.67919
C         45.19573        40.17519        -1.02605
C         43.93121        39.46432        -0.79191
C         45.19597        41.71030        -0.92948
C         43.92946        42.38184        -0.61474
C         45.20556        44.46323        -0.20127
C         43.95340        43.76356        -0.34076
C         45.21732        45.86981         0.07989
C         43.95756        46.60145         0.09228
C         45.17339        48.74064         0.45300
C         43.95049        48.01083         0.19661
C         45.19997        50.11281         0.53072
C         43.98336        50.89245         0.08226
C         43.95893        52.35069         0.45871
C         47.67487        23.09068         0.70251
C         46.49157        22.40862         0.68855
C         47.70963        24.53953         0.62876
C         46.52079        25.22293         0.69867
C         47.76045        27.41495         0.97173
C         46.53249        26.68587         0.49359
C         47.72556        28.87794         0.62898
C         46.50492        29.58027         0.66410
C         47.72890        31.69479         0.21606
C         46.49181        31.03916         0.58233
C         47.65807        33.07021        -0.18498
C         46.44855        33.79125        -0.17429
C         47.63971        35.92000        -0.74922
C         46.43076        35.21560        -0.48422
C         47.67386        37.32963        -0.78810
C         46.44577        38.05453        -0.72480
C         47.67639        40.20013        -0.81097
C         46.46361        39.47129        -0.83832
C         47.66992        41.63849        -0.68866
C         46.46503        42.37002        -0.62093
C         47.67816        44.46051        -0.11720
C         46.44263        43.76063        -0.28755
C         47.68066        45.86225         0.17015
C         46.42848        46.54273         0.29812
C         47.65602        48.75027         0.28789
C         46.43065        47.97053         0.80698
C         47.61622        50.16307         0.83192
C         46.42971        50.79952         0.90105
C         50.18381        24.58900         0.13850
C         48.97485        25.27443         0.43416
C         50.23330        27.39127         0.43610
C         49.01015        26.67065         0.55626
C         50.23772        28.81551         0.46445
C         49.00874        29.61943         0.82466
C         50.16816        31.50491        -0.52756
C         48.93841        30.97647         0.17944
C         50.18388        33.00932        -0.53155
C         48.88391        33.69699        -0.71593
C         50.20834        35.88809        -1.24860
C         48.86979        35.16284        -1.04856
C         50.16511        37.37470        -0.92838
C         48.92744        38.05530        -0.86496
C         50.14867        40.19334        -0.67844
C         48.91752        39.48103        -0.78514
C         50.11821        41.61430        -0.53394
C         48.91955        42.32785        -0.50366
C         50.12032        44.48293        -0.18264
C         48.91494        43.76469        -0.25487
C         50.13221        45.88819        -0.00426
C         48.92217        46.56343         0.23737
C         50.13861        48.73142        -0.04774
C         48.97197        48.03203         0.60256
C         51.38616        25.26399         0.05647
C         52.70735        27.37943         0.29018
C         51.45546        26.66850         0.22971
C         52.68128        28.77793         0.38776
C         51.45024        29.50819         0.31780
C         52.63281        31.65770        -0.02904
C         51.44990        30.91767         0.01823
C         52.62477        33.04833        -0.34793
C         51.35803        33.72154        -0.46989
C         52.64939        35.88206        -0.62001
C         51.30182        35.23202        -0.36700
C         52.68215        37.36234        -0.80097
C         51.38043        38.08438        -0.79927
C         52.65993        40.22030        -0.65091
C         51.39150        39.48741        -0.65878
C         52.63457        41.60050        -0.59063
C         51.38818        42.30400        -0.11349
C         52.66903        44.50092         0.01185
C         51.41041        43.78255        -0.51605
C         52.60669        45.98904        -0.24761
C         51.39072        46.63354        -0.16539
C         51.27346        48.07438        -0.34824
C         55.16940        27.38613         0.41498
C         53.98563        26.70575         0.31584
C         55.20652        28.81732         0.53468
C         53.92245        29.51171         0.63424
C         55.19409        31.67681         0.12414
C         53.90884        31.05042         0.42513
C         55.14553        33.01444        -0.58358
C         53.86709        33.78164        -0.30206
C         55.10270        35.90820         0.22308
C         53.87455        35.15570        -0.22626
C         55.09514        37.39778        -0.08647
C         53.93126        38.09337        -0.46783
C         55.15254        40.21647        -0.37737
C         53.93319        39.50651        -0.57677
C         55.22727        41.65381        -0.68981
C         53.82999        42.40968        -0.84162
C         55.10962        44.58209        -0.98774
C         53.85330        43.83594        -0.63775
C         55.04074        46.03752        -0.61031
C         53.87896        46.67832        -0.35536
C         56.37789        29.56099         0.52882
C         56.36234        30.96594         0.30159
C         56.38286        33.86814        -0.44720
C         56.36114        35.18307        -0.19683
C         56.25653        38.13293         0.20680
C         56.29576        39.51165         0.03608
C         56.34111        42.51969        -0.24902
C         56.29927        43.86092        -0.36676
O         52.85050        36.45895        -1.95794
O         53.82551        30.45699         1.75303
O         54.65881        41.95999        -1.98314
O         38.57158        48.96365        -1.49600
O         29.95610        37.86763        -1.70774
O         46.01634        27.07084        -0.81064
O         45.17591        41.02112        -2.22644
O         44.20030        30.26251         2.29886
O         34.67190        35.70902         1.62853
O         48.65799        34.16623        -2.11693
O         49.14324        29.83042         2.30899
H         48.41541        30.43656         2.56998
O         36.46928        42.39262        -2.50972
H         35.73160        42.98565        -2.77400
O         47.58106        48.82490        -1.15375
H         46.76589        49.31916        -1.38802
O         34.95572        46.21765        -2.11168
H         35.76967        45.95800        -2.59492
O         35.11821        40.02125        -2.30132
H         35.73555        40.68829        -2.69914
O         44.06125        50.86410        -1.38965
H         43.25151        51.29553        -1.73633
O         41.56290        52.12544         2.70970
H         40.69106        51.74734         2.95130
O         55.05544        32.68094        -2.00846
H         54.84448        33.50579        -2.49584
O         46.47296        47.89257         2.25674
H         47.42135        47.82766         2.52618
O         47.73015        27.35748         2.44098
H         48.38102        28.03150         2.75797
O         51.53983        43.82914        -1.96058
H         50.72122        43.46311        -2.35706
O         42.56295        32.14295         2.61005
H         42.92454        31.36293         3.09790
O         45.18776        24.59484         2.55172
H         46.04465        24.24509         2.87785
O         55.31295        44.55368        -2.43612
H         55.17101        43.61732        -2.71928
O         51.37949        42.20415         1.35808
H         51.29888        41.25330         1.58632
O         28.00832        44.28864         2.43561
H         28.84250        44.71462         2.72805
O         41.52144        20.81022         2.36723
H         42.29757        21.30354         2.70885
O         39.84376        48.18957         1.82628
H         40.61764        48.33401         2.41159
O         31.19523        38.04367         1.69283
H         32.00085        38.28807         2.19606
O         28.08247        28.83273        -2.75198
H         28.10292        29.77548        -3.02253
O         50.07915        31.06070        -1.93540
H         49.37964        31.59693        -2.36749
O         37.26453        51.14858        -0.92113
H         37.76069        50.80587        -1.69827
O         39.20417        46.64224        -2.22419
H         38.80635        47.47702        -2.57074
O         52.81662        44.39264         1.45605
H         52.45190        43.52082         1.74631
O         40.18812        33.40772         2.33107
H         41.00760        33.00288         2.71855
O         55.07635        35.85353         1.69602
H         55.22207        34.92017         1.96071
O         50.92234        35.53890         1.00557
H         51.55095        35.08629         1.60685
O         49.17301        48.11086         2.05298
H         50.00669        47.63796         2.26274
O         50.55395        35.77384        -2.63449
H         50.04853        35.01075        -3.00109
O         42.58929        37.09341        -2.32935
H         42.62052        37.97954        -2.75042
H         27.05881        26.81845        -0.89444
H         25.80251        28.95336        -0.90874
H         25.76862        31.36422        -0.52798
H         25.74919        33.26929        -0.86862
H         25.70899        35.68743        -0.79865
H         25.65919        37.60941        -0.33261
H         25.67513        40.00264        -0.03278
H         25.69622        41.97709        -0.02542
H         25.72667        44.34643         0.58196
H         26.99720        46.49349         0.78959
H         29.12840        25.64164        -0.36380
H         29.10743        47.70707         0.51929
H         32.87594        23.49068        -0.35393
H         30.78690        24.69102        -0.56237
H         32.95786        49.70371         1.17865
H         30.81015        48.54206         1.13550
H         34.49190        22.55738        -0.16334
H         34.73816        50.15317         1.94588
H         36.57901        21.35378         0.03025
H         36.80490        51.46931         1.97944
H         40.29005        19.19694         0.29980
H         38.24262        20.43663        -0.14381
H         40.39533        54.13779         0.91989
H         38.27403        52.96987         0.41697
H         42.75312        19.21882         0.20285
H         42.89682        54.05665         1.11595
H         44.85739        20.45441         0.04340
H         44.85911        52.94061         0.22635
H         48.61642        22.52549         0.70396
H         46.51848        21.31034         0.65545
H         48.55101        50.68569         1.08107
H         46.37670        51.84907         1.22469
H         50.17551        23.50111        -0.01184
H         50.06867        49.81594        -0.21486
H         52.30165        24.69212        -0.14733
H         52.12731        48.62381        -0.76953
H         56.12162        26.83560         0.40178
H         54.01092        25.61001         0.24044
H         55.97792        46.61167        -0.66826
H         53.89995        47.76697        -0.19396
H         57.34742        29.04196         0.52833
H         57.32832        31.45929         0.11956
H         57.33910        33.39174        -0.71422
H         57.30939        35.74266        -0.19427
H         57.15814        37.61651         0.56232
H         57.23799        40.04689         0.21515
H         57.21114        42.04330         0.22739
H         57.15909        44.46457        -0.03757
