         620
 CSIRO Nanostructure Databank - Neutral Graphene Oxide Data Set
C         24.14401        27.58436        -3.73845
C         24.15550        28.93788        -3.61682
C         23.97239        31.79235        -3.02282
C         23.89645        33.13255        -2.77580
C         23.66829        35.98606        -2.16921
C         23.51329        37.29874        -1.80512
C         23.17672        40.09515        -0.92192
C         22.96384        41.36483        -0.45902
C         22.91015        44.46111        -0.26260
C         23.05678        45.81142        -0.33389
C         25.90710        24.81165        -1.90834
C         24.98640        25.44289        -2.67673
C         26.52797        27.46511        -2.80258
C         25.26981        26.76189        -3.25142
C         26.61885        28.98243        -2.97647
C         25.26523        29.67261        -3.06715
C         26.31788        31.76282        -2.25178
C         25.17725        31.04265        -2.78696
C         26.20703        33.16507        -1.96813
C         25.00086        33.86747        -2.22443
C         25.94666        35.95777        -1.26918
C         24.86939        35.26084        -1.89360
C         25.78829        37.33841        -0.87485
C         24.54207        38.01414        -1.11095
C         25.40717        39.95367         0.19109
C         24.35780        39.33980        -0.64818
C         25.22225        41.37526         0.69807
C         23.92438        42.08885         0.37530
C         25.11048        44.29652         0.93702
C         23.88013        43.62175         0.46654
C         25.08945        45.72546         0.99461
C         24.15998        46.50801         0.29925
C         25.42610        48.70497         0.23104
C         24.27700        47.94220         0.18268
C         27.74167        23.45628        -0.10735
C         28.05194        24.74467        -0.60157
C         27.14087        25.44238        -1.48210
C         28.49420        27.48255        -1.23006
C         27.39894        26.77643        -1.82439
C         28.56803        28.91362        -1.33525
C         27.55654        29.64420        -1.99549
C         28.74370        31.79546        -1.54153
C         27.49058        31.05307        -1.89784
C         28.49854        33.18707        -1.02560
C         27.30443        33.85743        -1.32926
C         28.27534        35.94300        -0.45458
C         27.15643        35.24798        -0.99238
C         28.20371        37.41462        -0.38771
C         26.88736        38.06851        -0.33794
C         27.87670        40.14449         0.67834
C         26.77297        39.39002         0.14829
C         27.74018        41.57089         0.92303
C         26.44587        42.16721         0.95484
C         28.09204        44.73873         0.82450
C         26.24769        43.54475         1.26115
C         28.03057        46.05351         0.45216
C         26.96564        46.91560         0.87466
C         27.95398        48.84399        -0.22365
C         26.76215        48.17108         0.31536
C         27.99482        50.23259        -0.44748
C         29.78957        23.45133         1.15771
C         28.57266        22.84335         0.81366
C         30.22744        24.66349         0.59936
C         29.26961        25.37769        -0.19514
C         30.58109        27.44876         0.12063
C         29.46134        26.76958        -0.47179
C         30.65583        28.85489         0.07035
C         29.63687        29.61531        -0.63962
C         30.94677        31.72823        -0.25921
C         29.71756        30.99338        -0.71291
C         30.64069        33.13090         0.19503
C         29.54024        33.83810        -0.28684
C         30.56620        35.98036         0.48430
C         29.42923        35.26463        -0.05651
C         30.54337        37.38642         0.60199
C         29.37999        38.16960         0.15352
C         30.24457        39.97959         1.50471
C         29.15865        39.48321         0.79144
C         30.12845        42.05034         1.43057
C         28.94862        42.42274         0.84814
C         30.29967        44.35076        -0.22296
C         28.91655        43.73651         0.06960
C         30.32269        45.80129        -0.64886
C         29.07037        46.62698        -0.43137
C         30.36627        48.71736        -0.80787
C         29.13974        48.09925        -0.46114
C         30.39299        50.14209        -0.95047
C         29.18514        50.85444        -0.80811
C         32.79869        20.16734         1.10200
C         31.65163        20.83229         1.49847
C         32.77496        23.02113         1.26064
C         31.66571        22.23383         1.60333
C         32.72669        24.48765         1.19583
C         31.54834        25.24237         0.86597
C         32.83804        27.31844         1.10637
C         31.65595        26.65412         0.69706
C         32.76766        28.76734         1.41731
C         31.70690        29.56871         0.76036
C         32.89346        31.68292         1.33331
C         31.81418        30.94948         0.70417
C         32.87930        33.05651         1.35181
C         31.57813        33.79131         1.16026
C         32.89250        35.96506         1.24013
C         31.71364        35.27112         0.91828
C         32.88781        37.38966         1.27479
C         31.66839        38.07792         1.08929
C         32.77127        40.25751         1.45858
C         31.59586        39.48714         1.36001
C         32.77066        41.75299         1.37523
C         31.49268        42.58529         1.21772
C         32.83801        44.51791         0.17359
C         31.56897        43.75732         0.28589
C         32.82924        45.80308        -0.36730
C         31.60667        46.53967        -0.67031
C         32.84818        48.68131        -1.07857
C         31.58607        47.92632        -0.87742
C         32.87010        50.15568        -1.04969
C         31.65054        50.85903        -1.14507
C         32.91149        52.91185        -1.51505
C         31.70184        52.25428        -1.38173
C         35.33309        18.76691         0.55039
C         35.25970        20.17570         0.81499
C         34.00813        20.88321         0.94435
C         35.24773        23.01928         1.07577
C         34.00949        22.31094         1.06749
C         35.23433        24.45502         1.26604
C         33.96965        25.17232         1.33858
C         35.22631        27.29992         1.83754
C         33.98526        26.59142         1.45111
C         35.28851        28.77476         1.82585
C         33.99344        29.47225         1.95168
C         35.33502        31.63149         1.96134
C         33.98163        30.98041         2.15034
C         35.33877        33.09585         2.12320
C         34.04400        33.83319         1.84994
C         35.31473        35.97374         1.62053
C         34.11787        35.27752         1.54411
C         35.31861        37.42176         1.48024
C         34.08070        38.13794         1.44209
C         35.27446        40.27668         1.27237
C         34.03794        39.56752         1.38815
C         35.26390        41.70319         1.04972
C         34.03579        42.40931         0.91876
C         35.30330        44.43093         0.41829
C         34.04992        43.77350         0.51104
C         35.35935        45.80052        -0.12763
C         34.12446        46.48832        -0.58877
C         35.32869        48.77605        -0.44678
C         34.16689        47.96933        -0.84877
C         35.34603        50.15885        -0.69606
C         34.11676        50.83789        -1.07405
C         35.41074        52.93331        -1.40510
C         34.14403        52.23622        -1.33639
C         35.49620        54.26940        -1.86346
C         37.76473        18.70721         0.87753
C         36.53048        18.08959         0.51053
C         37.69301        20.12152         1.25661
C         36.45807        20.87959         1.01578
C         37.73801        23.00011         1.03982
C         36.47657        22.30114         1.09233
C         37.66617        24.45055         0.79801
C         36.43598        25.15088         1.19835
C         37.76043        27.34655         1.34345
C         36.53627        26.55680         1.60160
C         37.74594        28.76015         1.50483
C         36.49032        29.46089         1.73076
C         37.78685        31.63540         1.77628
C         36.50752        30.92822         1.80071
C         37.79102        33.08242         1.93453
C         36.61214        33.82520         1.99744
C         37.76257        35.97078         1.63775
C         36.58460        35.26755         1.81780
C         37.76406        37.35295         1.03608
C         36.51594        38.13726         1.34753
C         37.75794        40.25969         1.04924
C         36.50757        39.55553         1.23753
C         37.74258        41.64652         0.88416
C         36.51296        42.38229         0.89834
C         37.78048        44.54637         0.61700
C         36.52283        43.79030         0.68417
C         37.78915        45.92023         0.46871
C         36.50369        46.62792         0.34072
C         37.75264        48.85112         0.40476
C         36.46227        48.10971         0.22797
C         37.75695        50.33987         0.05902
C         36.54443        50.93546        -0.52751
C         37.85603        53.00646        -0.94206
C         36.60685        52.27909        -0.97168
C         37.89372        54.35577        -1.39071
C         36.69574        54.95250        -1.87041
C         40.28190        15.98148         0.48463
C         39.08208        16.62850         0.60012
C         40.25617        18.76101         1.06448
C         39.00990        18.03379         0.87037
C         40.25197        20.15829         1.18738
C         39.01674        20.90888         1.37485
C         40.22095        23.07926         0.92738
C         38.97966        22.36138         1.09492
C         40.21824        24.50009         0.80718
C         38.94776        25.23495         0.69893
C         40.17455        27.39214         0.89626
C         38.95086        26.68239         1.00286
C         40.18001        28.80891         1.05291
C         38.96064        29.49274         1.36750
C         40.30281        31.58730         1.62614
C         38.97384        30.91890         1.58395
C         40.36283        33.09025         1.83187
C         39.06617        33.80596         2.06189
C         40.29174        35.99841         1.49411
C         39.04388        35.31775         1.89135
C         40.26329        37.41466         1.35294
C         39.03154        38.12611         1.27933
C         40.26666        40.21628         1.07843
C         39.02192        39.52250         1.11565
C         40.30871        41.63597         0.71236
C         38.99319        42.37972         0.58716
C         40.26179        44.53234         0.75768
C         39.03309        43.84022         0.67242
C         40.28457        45.96402         0.60559
C         39.04953        46.64945         0.08230
C         40.22659        48.85142         0.36178
C         39.02512        48.13613         0.35799
C         40.25073        50.29809         0.15304
C         39.06146        50.99219        -0.13045
C         40.28188        53.10780        -0.42297
C         39.06925        52.36639        -0.51651
C         40.26840        54.49079        -0.75542
C         39.12712        55.10410        -1.31434
C         40.38690        57.19031        -1.68215
C         39.21975        56.46709        -1.75888
C         42.76308        15.99393         0.48702
C         41.51671        16.68356         0.67183
C         42.81366        18.68102         1.43264
C         41.50538        18.04822         0.98436
C         42.81349        20.21223         1.36626
C         41.50186        20.93608         1.27321
C         42.69818        23.05236         0.85489
C         41.47828        22.37960         0.95702
C         42.68500        24.52958         0.88251
C         41.40675        25.24648         0.78823
C         42.59203        27.40437         0.36851
C         41.40313        26.67148         0.67999
C         42.55618        28.81863         0.36453
C         41.40579        29.52292         0.80630
C         42.65670        31.67291         0.78091
C         41.47110        30.93566         1.00905
C         42.68246        33.11473         0.92442
C         41.52435        33.82964         1.31922
C         42.67282        35.99992         0.97727
C         41.48337        35.27609         1.26819
C         42.71329        37.39728         1.09980
C         41.49756        38.12071         1.26898
C         42.74824        40.25832         1.15316
C         41.49445        39.53854         1.19182
C         42.76198        41.67029         1.18700
C         41.52991        42.40661         1.00031
C         42.69119        44.54900         1.41201
C         41.48695        43.79345         1.00346
C         42.67468        46.04378         1.23265
C         41.45943        46.72114         0.70827
C         42.72668        48.84791         0.31790
C         41.46046        48.12569         0.47478
C         42.74206        50.32986         0.26448
C         41.50268        51.01234         0.10294
C         42.75573        53.12356        -0.06526
C         41.51284        52.42934        -0.08394
C         42.77555        54.59228        -0.10920
C         41.45176        55.31364        -0.48091
C         42.78057        57.31775        -1.02823
C         41.55603        56.64842        -1.07157
C         43.96581        16.66756         0.49908
C         45.24264        18.78759         0.71132
C         44.03790        18.04982         0.80761
C         45.23302        20.23673         0.72381
C         44.02869        20.94250         0.93675
C         45.15737        23.04831         0.40348
C         43.96290        22.35229         0.77242
C         45.07236        24.47068         0.02113
C         43.93050        25.28825         0.50997
C         44.99428        27.38899        -0.25227
C         43.84515        26.71785         0.11944
C         44.98473        28.83588        -0.51868
C         43.71484        29.58846        -0.12903
C         44.99200        31.71905        -0.04188
C         43.81188        31.02649         0.21236
C         45.04990        33.13871         0.19517
C         43.87902        33.81447         0.58022
C         45.15687        35.99207         0.61113
C         43.84416        35.30135         0.36496
C         45.18123        37.38322         0.84041
C         43.96066        38.11541         1.00495
C         45.22881        40.23685         1.07613
C         43.97818        39.52642         1.10922
C         45.21690        41.67039         1.16690
C         44.01200        42.35821         1.25565
C         45.16699        44.54554         0.80082
C         44.05468        43.83881         1.55690
C         45.30632        45.96288         0.99540
C         43.98627        46.75506         1.17569
C         45.27963        48.87737         0.84584
C         44.01390        48.12146         0.60692
C         45.23940        50.36211         0.61576
C         43.95909        51.03126         0.27745
C         45.24992        53.15910        -0.00452
C         43.98569        52.43938         0.06616
C         45.26797        54.55760        -0.25118
C         44.03202        55.30433        -0.35810
C         43.97727        56.66384        -0.67690
C         47.66725        18.84171         0.39172
C         46.49543        18.13382         0.52846
C         47.67880        20.26243         0.33731
C         46.44396        20.95770         0.45805
C         47.61731        23.10614        -0.01299
C         46.39318        22.38130         0.28664
C         47.60016        24.49151        -0.25334
C         46.32386        25.21268        -0.35044
C         47.54679        27.44105        -0.72141
C         46.31159        26.70801        -0.24977
C         47.43785        28.91980        -1.02276
C         46.26360        29.57729        -0.69425
C         47.42147        31.83511        -0.67506
C         46.11537        31.09225        -0.85045
C         47.49035        33.18453        -0.32546
C         46.29004        33.87681         0.05025
C         47.60986        35.96898         0.39978
C         46.34716        35.26986         0.35812
C         47.63435        37.35462         0.66800
C         46.43498        38.08559         0.85757
C         47.67452        40.23372         0.70155
C         46.44267        39.51372         0.97015
C         47.64624        41.64919         0.56010
C         46.50379        42.46981         1.09431
C         47.51159        44.52347        -0.20518
C         46.22555        43.72952         0.11826
C         47.59053        45.98808         0.04543
C         46.49734        46.69933         0.49921
C         47.70984        48.85782         0.34693
C         46.52611        48.13548         0.58203
C         47.70885        50.30806         0.31078
C         46.50986        51.04013         0.31908
C         47.74056        53.13910        -0.01253
C         46.49655        52.45033         0.09320
C         47.71504        54.54012        -0.24188
C         46.52362        55.21764        -0.37014
C         50.16429        20.34058         0.10018
C         48.90945        20.99451         0.13499
C         50.08306        23.11689        -0.33255
C         48.87236        22.40636        -0.05417
C         50.03927        24.52085        -0.61233
C         48.79120        25.21232        -0.55779
C         49.84533        27.02278        -1.70066
C         48.70807        26.55637        -1.04574
C         49.79783        29.20250        -1.89400
C         48.61844        29.71016        -1.36354
C         49.95264        31.89800        -1.23191
C         48.58572        31.17160        -1.23211
C         49.98282        33.22344        -0.60700
C         48.77251        33.89163        -0.28465
C         50.07862        35.97009         0.06726
C         48.82291        35.25636         0.11209
C         50.12286        37.37317         0.21879
C         48.95072        38.06891         0.85695
C         49.98429        40.14976        -0.12595
C         48.87165        39.51686         0.47376
C         49.71214        41.44114        -0.61484
C         48.70142        42.27055        -0.11432
C         50.11008        44.46073        -0.01384
C         48.78806        43.74923        -0.37206
C         50.15075        45.94948        -0.34004
C         48.84134        46.71893        -0.24794
C         50.16700        48.81508         0.13177
C         48.92002        48.15207         0.08125
C         50.18733        50.25237         0.24920
C         48.96400        50.99276         0.20333
C         50.24169        53.06973         0.16066
C         48.98165        52.41229         0.11634
C         51.33546        21.03312        -0.15280
C         52.54914        23.14592        -0.71331
C         51.32874        22.42465        -0.39814
C         52.50508        24.55538        -0.91437
C         51.23988        25.22601        -0.93033
C         52.31281        27.41655        -1.54295
C         51.15072        26.55275        -1.44069
C         52.28759        28.86928        -1.68967
C         51.13096        29.72488        -1.70612
C         52.40389        31.76700        -1.05571
C         51.19620        31.11116        -1.33154
C         52.45702        33.13372        -0.64797
C         51.24612        33.85694        -0.44171
C         52.52739        35.95920        -0.24700
C         51.28830        35.26249        -0.19729
C         52.54167        37.37855        -0.21661
C         51.31641        38.09617        -0.05965
C         52.53784        40.22759        -0.40648
C         51.29961        39.52166        -0.24045
C         52.64666        41.66813        -0.51595
C         51.55148        42.49775        -0.84786
C         52.64053        44.50208        -0.12526
C         51.43050        43.81842        -0.41740
C         52.62261        45.94038         0.08043
C         51.41495        46.66202        -0.01589
C         52.63003        48.76745         0.42631
C         51.40257        48.08004         0.13570
C         52.64197        50.18714         0.55791
C         51.42177        50.94002         0.37033
C         51.41314        52.36111         0.32230
C         54.91821        23.20508        -1.27144
C         53.78785        22.49348        -0.89070
C         54.91751        24.60830        -1.39484
C         53.68879        25.31437        -1.16518
C         54.67884        27.56996        -0.92523
C         53.54532        26.76328        -1.23722
C         54.83066        28.88040        -1.31234
C         53.59316        29.57965        -1.68798
C         54.90614        31.60501        -0.69966
C         53.65254        31.07977        -1.37175
C         54.94092        33.11032        -0.72036
C         53.72587        33.81447        -0.56556
C         54.99010        35.92618        -0.35544
C         53.75538        35.23564        -0.39546
C         55.00948        37.36261        -0.24819
C         53.78048        38.08884        -0.27159
C         55.03982        40.20734        -0.18810
C         53.78380        39.51331        -0.28782
C         55.08053        41.62362        -0.11402
C         53.86385        42.36331        -0.24545
C         55.14346        44.53638        -0.29687
C         53.85382        43.78392        -0.17338
C         55.09152        45.92016         0.30557
C         53.86608        46.61637         0.33841
C         55.05527        48.70000         0.92936
C         53.84857        48.03285         0.58032
C         55.02189        50.11044         1.09788
C         53.86067        50.82778         0.89779
C         57.06003        24.73254        -2.82001
C         56.15341        25.26531        -1.86495
C         57.37583        27.42630        -1.97701
C         56.45562        26.53841        -1.37925
C         57.33753        28.85183        -1.75285
C         56.13308        29.54673        -1.35487
C         57.36855        31.67755        -1.34594
C         56.16004        30.94005        -1.20578
C         57.40045        33.08622        -1.05376
C         56.17847        33.78999        -0.75006
C         57.46358        35.87124        -0.45120
C         56.21448        35.19971        -0.52371
C         57.48787        37.26067         0.14170
C         56.23822        38.05899        -0.12759
C         57.52657        40.16880         0.09160
C         56.26671        39.46304        -0.08041
C         57.55798        41.56796         0.19276
C         56.32679        42.33634         0.07242
C         57.65468        44.47844         0.08669
C         56.35410        43.72254         0.08128
C         57.53739        45.85032         0.71837
C         56.30368        46.56629         0.68832
C         57.47397        48.54600         1.54852
C         56.27710        47.94640         1.07608
C         58.15759        25.47696        -3.23570
C         59.42774        27.64976        -3.27511
C         58.33195        26.83634        -2.85063
C         59.53260        28.95318        -2.84976
C         58.48290        29.60622        -2.12222
C         59.73841        31.77345        -1.92961
C         58.53925        31.01443        -1.81278
C         59.78527        33.10110        -1.56736
C         58.62199        33.79704        -1.12357
C         59.89792        35.92226        -0.66619
C         58.66138        35.19463        -0.73858
C         59.93545        37.27212        -0.38478
C         58.76024        38.02289        -0.11380
C         59.99001        40.13737         0.27721
C         58.76570        39.41855         0.08526
C         60.00236        41.48539         0.50424
C         58.80168        42.26637         0.42945
C         59.97474        44.37767         1.03191
C         58.82657        43.66625         0.57804
C         59.92973        45.72472         1.29596
C         58.70178        46.47360         1.19604
C         58.64800        47.82713         1.62967
O         49.70359        28.03224        -2.64110
O         39.70548        41.87916        -0.61165
O         55.74697        26.96513        -0.24513
O         45.40733        24.71795        -1.38872
O         35.97221        26.73115         2.95677
O         30.05678        41.03747         2.40613
O         30.52916        22.82891         2.16841
O         40.65494        32.16760         2.93806
O         47.24635        27.23608         0.73442
O         49.11973        31.84914        -2.42991
O         34.47399        33.57000         3.22690
O         50.52523        41.95583        -1.62108
O         37.62088        49.86092         1.45128
O         42.42360        45.43699         2.55086
O         44.00350        29.26825        -1.55027
O         39.12604        34.69145         3.22441
O         53.77670        30.60315        -2.72797
O         43.56731        48.21155        -0.77328
O         29.14985        38.10260        -1.29907
O         41.92253        55.21793         0.89887
O         29.37195        46.03181        -1.73891
O         44.83431        46.52774         2.30947
O         27.32021        44.24324         1.87110
O         49.49122        46.38192        -1.54683
O         33.00480        28.88207         2.87474
O         48.06120        44.18283        -1.54523
O         23.29521        42.76049         1.51668
O         42.20932        20.75474         2.59083
O         24.99513        40.24071         1.58951
O         32.24132        42.61138         2.46650
O         38.18277        24.88927        -0.52518
O         35.03147        45.81625        -1.55201
O         26.48339        26.78144        -4.10809
O         38.27464        20.46900         2.55961
O         33.67480        48.22019        -2.20964
O         36.08937        47.43711         1.51047
O         45.24242        49.77209         1.99161
O         43.61546        25.07067         1.91499
O         26.03563        46.39390         1.79129
O         31.05727        43.43329        -1.07750
O         45.72998        31.31238        -2.25098
H         44.97619        30.69636        -2.42596
O         57.47968        37.03406         1.61209
H         58.30540        36.55065         1.82956
O         37.73107        37.12757        -0.42731
H         37.79112        38.00574        -0.86170
O         28.27509        43.52720        -1.20899
H         28.98043        43.33250        -1.86456
O         49.22094        38.03505         2.30898
H         49.25266        37.09286         2.57943
O         42.93409        18.32543         2.84888
H         42.46984        19.04117         3.34701
O         46.90140        42.96225         2.37760
H         46.09596        43.31659         2.83939
O         30.91946        33.69330         2.48651
H         31.61875        33.77946         3.17129
O         29.43553        32.00326        -2.86170
H         29.23859        31.21432        -3.41506
O         39.09071        46.54550        -1.40339
H         39.19142        45.59503        -1.62886
O         44.41721        43.91004         2.97462
H         44.17104        44.82161         3.27732
O         57.97034        44.74588        -1.33615
H         57.12303        45.04688        -1.75416
O         45.71452        43.17081        -1.10741
H         46.42909        43.26517        -1.78313
O         50.11499        44.38059         1.44566
H         50.97275        44.72353         1.77581
O         54.75091        31.21758         0.70961
H         55.51758        31.57545         1.20513
O         31.79000        31.91494        -1.46371
H         31.16280        32.11906        -2.20628
O         27.25218        29.22544        -4.27697
H         27.03101        28.43721        -4.83125
O         55.29327        44.79170        -1.77002
H         55.13570        43.93628        -2.22599
O         33.62108        31.22365         3.53500
H         33.07185        30.45669         3.82258
O         43.61573        35.44136        -1.10186
H         44.35679        34.98217        -1.55460
H         23.25926        27.07099        -4.14244
H         23.25833        29.48879        -3.93254
H         23.08564        31.28632        -3.42594
H         22.95002        33.64668        -2.98695
H         22.83440        35.49015        -2.68252
H         22.56181        37.79726        -2.03212
H         22.38170        39.63221        -1.52241
H         21.99526        41.84744        -0.65060
H         22.02476        43.98184        -0.70260
H         22.30807        46.41125        -0.87234
H         25.66537        23.80831        -1.53516
H         24.01085        24.97658        -2.87799
H         25.31999        49.77320        -0.01358
H         23.35149        48.46924        -0.10162
H         26.81122        22.95081        -0.39186
H         27.09099        50.84044        -0.30663
H         28.29718        21.88686         1.27556
H         29.17823        51.94479        -0.93606
H         32.78616        19.07307         1.01823
H         30.73664        20.28153         1.75123
H         32.90079        53.99055        -1.71990
H         30.77560        52.83212        -1.49736
H         34.41380        18.21674         0.30815
H         34.59811        54.78174        -2.23315
H         36.51786        17.02825         0.22797
H         36.70630        55.98558        -2.24083
H         40.31293        14.90489         0.26396
H         38.15460        16.05309         0.48101
H         40.42495        58.21328        -2.08405
H         38.34266        56.94480        -2.21460
H         42.73753        14.92379         0.23572
H         42.83381        58.35574        -1.38763
H         44.87484        16.12318         0.20731
H         44.90826        57.23884        -0.77337
H         48.60576        18.28116         0.29277
H         46.54355        17.03723         0.54596
H         48.65419        55.10068        -0.33813
H         46.55346        56.29881        -0.55757
H         50.22859        19.25935         0.27796
H         50.29322        54.16508         0.10278
H         52.28115        20.47527        -0.16554
H         52.35848        52.91661         0.38243
H         55.85569        22.66010        -1.45152
H         53.86689        21.40493        -0.77109
H         55.93689        50.65474         1.36608
H         53.88867        51.91797         1.02588
H         56.90546        23.71936        -3.21776
H         57.47157        49.59510         1.87304
H         58.88568        25.02721        -3.92586
H         60.20582        27.21383        -3.91804
H         60.40837        29.53925        -3.16116
H         60.66038        31.28753        -2.27682
H         60.74214        33.63371        -1.64871
H         60.84270        35.40877        -0.88723
H         60.90616        37.78504        -0.43953
H         60.94082        39.58803         0.29898
H         60.96462        41.98412         0.68019
H         60.90874        43.83467         1.23451
H         60.82689        46.24094         1.66743
H         59.56168        48.30268         2.01426
