         280
 CSIRO Nanostructure Databank - Neutral Graphene Oxide Data Set
C         30.75965        31.46186         0.88436
C         30.53592        32.66686         0.75384
C         30.27392        35.98158         1.24413
C         30.24508        37.18344         1.52388
C         30.52539        40.43440         2.53327
C         30.65063        41.60434         2.89732
C         33.13450        28.98280        -0.53071
C         32.19849        29.34420         0.19834
C         32.67856        31.61150        -0.53260
C         32.07609        30.76632         0.66212
C         32.59247        33.14294        -0.44733
C         31.28930        33.75691         0.12649
C         32.54212        36.05162         0.37130
C         31.22853        35.22245         0.41300
C         32.62206        37.17050         1.44371
C         31.38545        38.12097         1.46378
C         32.90772        40.16472         2.09952
C         31.51297        39.54359         1.90508
C         33.11207        41.59751         2.46974
C         31.70898        42.53828         3.30872
C         32.83300        44.38334         2.02660
C         31.93268        43.81426         2.64213
C         35.29603        27.53156        -2.14731
C         34.77821        28.85020        -2.40300
C         34.00512        29.55412        -1.52119
C         34.63060        32.17661        -1.99749
C         33.70923        31.05260        -1.48460
C         35.12860        33.25178        -0.94307
C         33.84627        33.98993        -0.62388
C         35.20164        35.95586         0.25458
C         33.83077        35.40219        -0.08561
C         35.24131        37.23482         1.06898
C         33.96269        37.92833         1.41734
C         35.11729        40.19255         0.71828
C         33.94620        39.44210         1.28385
C         35.37147        41.63527         1.11967
C         34.32793        42.43992         1.99004
C         35.01435        44.52039         0.52116
C         33.96774        43.79332         1.29354
C         35.28049        45.96134         0.40955
C         37.75634        27.46193        -1.78220
C         36.39352        26.98330        -2.04894
C         37.89109        28.90473        -2.26144
C         36.76425        29.87341        -2.65710
C         37.83978        31.59628        -1.41271
C         37.06438        31.21618        -2.63904
C         37.71785        33.00210        -0.74749
C         36.37175        33.72240        -0.58720
C         37.73062        35.73174         0.58807
C         36.45061        35.12844         0.01154
C         37.72972        37.24099         0.71396
C         36.50688        38.11355         1.01325
C         37.53884        40.11241        -0.25408
C         36.32549        39.40292         0.24709
C         37.43056        41.61396        -0.59902
C         36.45227        42.35733         0.34777
C         37.52914        44.62660        -0.40013
C         36.31658        43.84283         0.06648
C         37.67131        46.13313        -0.05322
C         36.31057        46.61558         0.23521
C         40.04133        24.57613        -0.73111
C         39.10249        25.20307        -1.23980
C         40.41220        27.23153        -1.53157
C         38.97272        26.66072        -1.42276
C         40.48526        28.73207        -1.55260
C         39.21857        29.52932        -1.90051
C         40.45899        31.68645        -1.10658
C         39.24587        31.01823        -1.63450
C         40.35291        33.15439        -0.76518
C         39.01407        33.67852        -0.29400
C         40.33074        35.88097         0.44366
C         39.07652        34.96169         0.55633
C         40.27710        37.36883         0.65733
C         38.96176        38.01246         0.35820
C         39.96121        40.31753         0.61955
C         38.89774        39.45278        -0.05538
C         40.02893        41.77730         0.15928
C         38.81043        42.35794        -0.53533
C         40.11007        44.60112        -0.54003
C         38.81857        43.85710        -0.58557
C         39.95663        45.95797        -1.17021
C         38.95128        46.84174        -0.44254
C         40.23515        49.07196        -0.76378
C         39.35274        48.23814        -0.55366
C         42.60336        24.47505         0.05782
C         41.47130        24.89391        -0.77866
C         42.91607        27.16272        -0.80006
C         41.62446        26.39646        -1.10811
C         42.91407        28.66084        -0.64891
C         41.60788        29.40984        -0.78912
C         42.82790        31.68458        -0.04262
C         41.60340        30.89439        -0.56106
C         42.94510        33.14942        -0.52613
C         41.63252        33.92581        -0.60508
C         42.81380        35.99866         0.42226
C         41.59580        35.44033        -0.31590
C         42.81986        37.51899         0.53651
C         41.50477        38.22942         0.48001
C         42.65215        40.47625         0.79460
C         41.36469        39.69422         0.81026
C         42.67246        41.90728         0.33573
C         41.32049        42.57633         0.16173
C         42.55190        44.53802        -0.94181
C         41.29371        43.94089        -0.42719
C         42.75926        46.00762        -0.75443
C         42.05474        46.74927         0.36264
C         42.59347        49.03136        -1.20378
C         41.41959        49.81025        -1.02034
C         43.71938        25.01353         0.03583
C         45.32032        27.11469         0.28525
C         44.14091        26.38250        -0.25568
C         45.24972        28.62131         0.55712
C         44.00588        29.36265         0.16071
C         45.41671        31.57373         0.20262
C         44.12347        30.86418        -0.09019
C         45.56626        33.11722         0.02157
C         44.22453        33.87378        -0.19557
C         45.37665        36.02299         0.83762
C         44.11822        35.25938         0.42068
C         45.33598        37.49994         1.09816
C         44.03227        38.25129         1.03494
C         45.27353        40.45839         0.48075
C         44.00267        39.75354         0.93516
C         45.07832        41.44329        -0.67979
C         43.90135        42.41694        -0.37459
C         45.07297        44.49092        -1.41601
C         43.79547        43.72442        -1.12792
C         45.04133        46.00768        -1.70679
C         43.68090        46.75519        -1.72975
C         43.48694        48.18345        -1.30710
C         47.42784        27.20849         1.44898
C         46.41108        26.58491         1.12324
C         47.54230        28.65250         1.72290
C         46.49810        29.34635         0.89980
C         47.61574        31.59251         1.60307
C         46.45320        30.82467         1.01180
C         47.69910        33.10861         1.50810
C         46.55218        33.87102         0.92651
C         47.85914        36.05725         1.40839
C         46.73204        35.37062         0.58767
C         47.90545        37.58566         1.36713
C         46.56421        38.38139         1.40768
C         47.77630        40.06675        -0.22323
C         46.58751        39.73463         0.65658
C         47.73574        41.42954        -0.89764
C         46.38500        42.19733        -1.01160
C         47.69127        44.43764        -1.02029
C         46.37182        43.69073        -1.25335
C         47.44520        45.85744        -1.31647
C         46.40098        46.50705        -1.41588
C         50.12738        28.80365         2.24591
C         48.77471        29.36953         2.18977
C         50.21163        31.58055         1.93882
C         48.88604        30.88732         2.02991
C         50.29794        32.91936         1.22933
C         49.04536        33.74384         1.22389
C         50.47966        35.93644         1.32892
C         49.13229        35.24308         1.41698
C         50.49978        37.43629         1.11344
C         49.21166        38.24622         1.00420
C         50.44900        39.93940        -0.61671
C         49.12238        39.40220         0.01386
C         50.39779        41.44244        -1.05207
C         49.03899        42.15450        -1.13831
C         50.31828        44.23562        -1.27768
C         48.98073        43.69325        -1.01278
C         51.22926        29.31073         1.98044
C         52.66587        31.46190         1.51989
C         51.76429        30.64450         2.32843
C         52.73437        32.65119         1.19791
C         51.65178        33.61582         0.95883
C         52.86403        36.04241         1.04302
C         51.72577        35.10873         0.95732
C         52.88595        37.27329         1.00519
C         51.78105        38.23217         0.88154
C         52.84248        40.33531        -0.34630
C         51.73035        39.55544         0.21953
C         52.84985        41.50923        -0.73512
C         51.72044        42.24430        -1.29575
C         51.41610        43.67702        -1.22784
O         40.18927        31.61228        -2.55159
O         43.97040        39.08591         2.21886
O         32.88871        33.77878        -1.70028
O         35.60695        29.45248        -3.39902
O         51.68757        39.47878         1.64328
O         34.65698        32.46391        -3.16587
O         51.06547        41.59876        -2.36842
O         35.96432        36.11081        -0.97875
O         38.32017        32.72296         0.56015
O         43.68694        42.68927         1.04271
O         43.17967        46.25165         0.66819
O         34.79206        37.29298         2.45192
O         33.89316        43.86316        -0.13295
O         32.30886        31.23811        -1.88194
O         33.07895        36.35313        -0.91944
O         41.13141        29.95515         0.47829
O         37.73771        36.36201         1.89954
O         49.49505        31.59332         3.18596
O         46.20926        40.87559         1.49082
O         36.65434        39.34850        -1.14857
O         48.70714        38.32393         2.34737
O         48.36296        35.52237         2.63850
O         40.97482        33.80029        -1.91082
O         46.66690        33.69897         2.34884
O         44.08327        28.91782         1.53336
O         40.82276        27.94062        -2.72324
O         40.50431        36.48563         1.77489
O         45.10205        31.05451        -1.14044
O         43.81434        33.61844        -1.58220
O         42.86357        43.90516        -2.22998
O         48.20766        38.99225        -1.08165
O         43.18615        35.22993         1.56954
O         42.33050        38.11950        -0.71186
O         39.13951        38.45392        -1.06122
O         38.98882        43.02775        -1.80234
O         47.75237        28.98923         3.12831
O         45.25283        36.50639         2.19043
O         49.50285        33.07001         0.00558
O         46.35472        42.74742        -2.36028
O         45.30960        26.64309        -1.06989
O         38.89577        29.17226        -3.28709
O         48.34059        41.49091        -2.22179
O         41.86916        25.31686        -2.08295
O         50.65727        36.82165         2.44335
O         51.61490        34.37190        -0.27234
O         33.39565        40.54492         3.43057
O         36.51931        44.22629        -1.33691
O         36.68754        41.89285         1.69978
O         45.08440        45.05122        -2.77691
O         30.71260        34.68618        -0.80763
O         48.33573        44.09992         0.22765
O         38.70165        46.34520         0.92072
O         41.90620        40.23820         2.03310
O         31.32441        39.18146         0.51061
O         33.94541        39.93458        -0.09511
O         43.33843        28.04023        -1.88433
O         40.50782        46.29180        -2.19509
O         46.46731        31.24264         2.43032
O         38.20513        27.33824        -0.39463
O         40.44414        42.56207         1.32935
O         39.38096        40.35886         1.94544
H         39.98500        40.89567         2.51179
O         36.75905        38.64130         2.33025
H         36.95336        37.89081         2.93535
O         46.39822        38.75380         2.77720
H         46.23474        37.94069         3.30261
O         50.65870        39.16484        -1.80019
H         49.92212        39.34638        -2.42511
O         47.12146        35.62455        -0.77069
H         46.92613        34.82220        -1.32226
O         36.96140        41.72921        -1.93016
H         36.53067        40.88330        -2.19255
O         41.54976        36.10576        -1.58359
H         41.21594        35.48489        -2.27218
O         44.71701        40.66271        -1.82585
H         44.99284        41.15223        -2.63451
O         34.99549        42.86747         3.17569
H         35.16445        42.08399         3.74151
O         46.27469        33.22092        -1.24556
H         45.72778        32.75486        -1.92379
O         36.84879        32.13524        -3.60588
H         36.37786        31.72068        -4.35871
O         37.25642        30.72470        -0.39356
H         37.65299        30.96346         0.47738
O         42.57905        31.90283         1.36521
H         42.30206        31.04955         1.77217
O         31.97251        42.55600         4.64541
H         31.89029        41.65468         5.01777
O         43.16953        46.69163        -3.04719
H         43.45404        45.83773        -3.45075
O         41.39985        51.14279        -1.14594
H         42.28967        51.49135        -1.35296
O         32.89919        30.98637         1.78271
H         32.59503        30.42359         2.52482
O         52.00392        30.79722         3.66480
H         51.25229        30.43847         4.18243
O         39.22257        34.38801         1.87392
H         39.36558        35.12870         2.50740
O         32.50970        36.45953         2.69528
H         33.37672        36.49499         3.16435
