         429
 CSIRO Nanostructure Databank - Neutral Graphene Oxide Data Set
C          1.39690         2.14463         0.84714
C          1.30456         3.51983         0.44837
C          2.57030         1.45174         0.75088
C          2.35080         4.17585        -0.15327
C          1.12376         6.35176        -0.29802
C          1.10131         7.73467        -0.41703
C          2.32636         5.61615        -0.42178
C          2.29304         8.47187        -0.55934
C          1.08267        10.68370        -0.75263
C          1.10035        12.07698        -0.76869
C          2.27464         9.94121        -0.63129
C          2.29797        12.80890        -0.66030
C          1.10590        15.04139        -0.74777
C          1.10280        16.43741        -0.71813
C          2.31695        14.28248        -0.72456
C          2.29698        17.16518        -0.78108
C          2.36465        18.60703        -0.78843
C          3.74449         2.06984         0.18970
C          3.59030         3.40997        -0.43054
C          4.96220         1.43839         0.17820
C          4.83526         4.13296        -0.89061
C          3.52149         6.32495        -0.68173
C          3.51513         7.74322        -0.65355
C          4.78524         5.63456        -1.17833
C          4.77975         8.45096        -0.65151
C          3.48703        10.66293        -0.54092
C          3.51627        12.08220        -0.53968
C          4.72603         9.89441        -0.31906
C          4.79099        12.78969        -0.46571
C          3.53550        14.96096        -0.79867
C          3.54262        16.41598        -0.95550
C          4.82757        14.30077        -0.37181
C          4.86316        17.17520        -0.82413
C          3.52988        19.27598        -0.56775
C          4.77309        18.53242        -0.15044
C          6.18127         2.08304        -0.26488
C          6.14421         3.48333        -0.66272
C          7.38301         1.41501        -0.18846
C          7.32681         4.22879        -0.71744
C          6.06185         6.36388        -0.81931
C          6.00143         7.79687        -0.72343
C          7.27628         5.68169        -0.74741
C          7.29053         8.57509        -0.91493
C          6.00145        10.65142        -0.17061
C          5.96798        12.10842        -0.34243
C          7.29245         9.96451        -0.35265
C          7.29298        12.77236        -0.36146
C          6.07432        14.95517        -1.03599
C          6.12049        16.42006        -0.64659
C          7.36662        14.22739        -0.65210
C          7.27682        17.09629        -0.34613
C          6.06737        19.26849        -0.31295
C          7.26887        18.56840        -0.27198
C          8.63676         2.05494        -0.71350
C          8.59854         3.55908        -0.55510
C          9.90668         1.41878        -0.21552
C          9.76537         4.27865        -0.39275
C          8.52231         6.41549        -0.58166
C          8.53071         7.81434        -0.54031
C          9.75696         5.71131        -0.45578
C          9.73295         8.52279        -0.24107
C          8.46456        10.61677        -0.02988
C          8.40651        12.07327         0.39487
C          9.70492         9.91871        -0.00299
C          9.73573        12.79318         0.25416
C          8.56146        14.97108        -0.18285
C          8.54156        16.39102        -0.17475
C          9.72993        14.25760         0.14261
C          9.73841        17.11097         0.02424
C          8.51593        19.24704        -0.19286
C          9.74020        18.56213        -0.02403
C         11.04474         2.12639         0.03435
C         11.02094         3.63222         0.14021
C         12.31061         1.49261         0.31173
C         12.29841         4.27556        -0.35454
C         10.98091         6.42872        -0.42890
C         10.98395         7.81450        -0.23028
C         12.23130         5.70440        -0.85928
C         12.22594         8.56456        -0.11849
C         10.90961        10.58730         0.59910
C         10.88994        12.09770         0.45720
C         12.21030         9.92278         0.17014
C         12.15562        12.80111         0.87417
C         10.94743        14.98176         0.32192
C         10.96212        16.40860         0.22648
C         12.16950        14.28705         0.55626
C         12.18608        17.13334         0.36327
C         10.96066        19.25551         0.10112
C         12.19525        18.57528         0.28536
C         13.50656         2.19388         0.18039
C         13.47158         3.58287        -0.28484
C         14.77319         1.58305         0.41479
C         14.75944         4.20170        -0.67421
C         13.49156         6.48180        -0.56917
C         13.48642         7.84625        -0.30404
C         14.75013         5.76801        -0.77565
C         14.73263         8.57508        -0.24206
C         13.43471        10.69777         0.17386
C         13.39223        12.06503         0.40578
C         14.71556        10.01037        -0.03791
C         14.61038        12.86791         0.33097
C         13.35215        15.00809         0.65265
C         13.40045        16.43534         0.56313
C         14.60531        14.26136         0.86845
C         14.64683        17.14898         0.65444
C         13.42043        19.26425         0.38581
C         14.65735        18.58133         0.54887
C         16.01445         2.17920         0.13801
C         16.03662         3.53232        -0.41053
C         17.19645         1.46234         0.57303
C         17.21043         4.30951        -0.57578
C         16.00122         6.46866        -0.50545
C         15.95561         7.87192        -0.34761
C         17.22673         5.74825        -0.48121
C         17.24914         8.57492        -0.38063
C         15.91323        10.70342         0.09888
C         15.93126        12.16055         0.21743
C         17.22724        10.06672        -0.09752
C         17.15674        12.86434         0.62717
C         15.90361        14.99347         0.91847
C         15.89205        16.46811         0.78231
C         17.16661        14.22627         0.75385
C         17.10071        17.16643         0.75267
C         15.89638        19.27730         0.59803
C         17.13248        18.60213         0.68342
C         18.46685         1.66832         0.04474
C         18.49403         3.69924        -0.73552
C         19.75357         1.36296         0.55100
C         19.70583         4.27868        -0.44780
C         18.46959         6.40918        -0.22182
C         18.49366         7.83858        -0.10810
C         19.71699         5.68964        -0.15194
C         19.65475         8.53804         0.22363
C         18.44289        10.67193         0.45109
C         18.37521        12.06607         1.03653
C         19.62350         9.94973         0.49992
C         19.64888        12.82058         0.63155
C         18.41427        14.95320         0.93442
C         18.37474        16.42198         0.70841
C         19.60383        14.28334         0.99366
C         19.65426        17.18738         0.71161
C         18.38577        19.31065         0.72335
C         19.63633        18.66953         0.78578
C         20.93134         2.06232         0.16775
C         20.95988         3.42838        -0.56233
C         22.16905         1.44692         0.39718
C         22.19951         4.21915        -0.19038
C         20.92455         6.36835         0.06578
C         20.91002         7.77904         0.60219
C         22.17949         5.67262        -0.07336
C         22.16318         8.57952         0.32348
C         20.89261        10.61167         0.93992
C         20.90005        12.10418         1.08300
C         22.18152         9.93817         0.62907
C         22.16748        12.85857         0.98433
C         20.88191        14.98398         1.23112
C         20.89600        16.48311         1.15278
C         22.16120        14.25928         1.05793
C         22.17011        17.18326         0.94075
C         20.89100        19.31378         0.80106
C         22.13760        18.59664         0.79366
C         23.41675         2.08692         0.13301
C         23.39701         3.53033        -0.05796
C         24.63726         1.40172         0.15794
C         24.65482         4.22571        -0.06640
C         23.36746         6.39217        -0.06442
C         23.39485         7.89348        -0.20828
C         24.67971         5.71076        -0.32142
C         24.66978         8.54916         0.30424
C         23.37839        10.71244         0.65279
C         23.38998        12.12730         0.88512
C         24.67713        10.05606         0.24614
C         24.60768        12.86199         0.99411
C         23.37202        15.00185         1.00613
C         23.37949        16.44955         0.96771
C         24.61136        14.28343         1.01677
C         24.61606        17.15635         0.89161
C         23.39005        19.26473         0.68107
C         24.59725        18.57095         0.73656
C         25.88509         2.08056         0.01298
C         25.84079         3.52682        -0.04407
C         27.11932         1.40585        -0.05309
C         27.10601         4.28698        -0.14051
C         25.81408         6.38619         0.43971
C         25.83307         7.86415         0.51816
C         27.10798         5.64964         0.46966
C         27.12123         8.51855         0.78836
C         25.84952        10.62632         1.00728
C         25.84886        12.10430         1.25516
C         27.14515         9.91984         0.92949
C         27.14551        12.79524         1.28170
C         25.84398        15.00775         1.07771
C         25.86609        16.42692         0.95571
C         27.10062        14.26430         1.31581
C         27.08906        17.13061         0.76109
C         25.88332        19.37109         0.68945
C         27.14442        18.54430         0.52157
C         28.37896         2.07159        -0.16845
C         28.39133         3.55321        -0.23137
C         29.60416         1.42462        -0.21204
C         29.62868         4.27269         0.13392
C         28.38706         6.36636         0.65093
C         28.34930         7.78829         0.89236
C         29.58142         5.64686         0.54811
C         29.55905         8.50876         1.13611
C         28.34879        10.63874         1.11758
C         28.34301        12.09859         1.20635
C         29.56479         9.91600         1.19647
C         29.61432        12.80261         1.04103
C         28.40645        14.97375         1.02303
C         28.30573        16.34763         0.47972
C         29.62825        14.18678         0.80365
C         29.58787        17.02652         0.13582
C         28.32674        19.18504         0.21378
C         29.66948        18.51680         0.36519
C         30.84583         2.16324        -0.33466
C         30.83755         3.60013        -0.01564
C         32.01234         1.56090        -0.73720
C         32.07192         4.31488         0.13549
C         30.84435         6.26342         0.99318
C         30.82647         7.77387         1.33020
C         32.11493         5.62326         0.59981
C         32.10527         8.47171         1.28202
C         30.82520        10.66456         1.44416
C         30.85220        12.09268         1.06566
C         32.14810         9.91486         1.48506
C         32.07559        12.73751         0.79496
C         30.84219        14.86207         0.47218
C         30.85112        16.26156         0.21363
C         32.06606        14.12868         0.43966
C         32.03911        16.93245        -0.11426
C         30.82712        19.08320        -0.41227
C         31.98678        18.34424        -0.54202
C         33.18024         2.43054        -1.13751
C         33.35266         3.56026        -0.09502
C         34.50216         1.72205        -1.28796
C         34.49146         4.49857        -0.45057
C         33.37293         6.33409         0.76965
C         33.35312         7.70415         1.36137
C         34.54486         5.79879         0.26097
C         34.66581         8.46266         1.52158
C         33.41157        10.64397         1.21205
C         33.34590        12.02732         0.85822
C         34.64399         9.96834         1.33695
C         34.53339        12.70952         0.47352
C         33.26259        14.81330         0.07751
C         33.24186        16.19534        -0.18859
C         34.51074        14.06949         0.01585
C         34.54438        16.91193        -0.45179
C         33.15869        18.89677        -1.16092
C         34.37527        18.21938        -1.20084
C         35.70519         2.40245        -1.22888
C         35.72683         3.88612        -1.02011
C         36.94731         1.72084        -1.31286
C         37.05218         4.64218        -0.95616
C         35.83250         6.44772         0.42223
C         35.88521         7.67516         1.13448
C         37.04332         5.82746         0.00578
C         37.15109         8.13623         1.49844
C         35.83666        10.73762         1.11955
C         35.78916        12.04488         0.55406
C         37.13765        10.28515         1.47591
C         37.00249        12.68684         0.13821
C         35.67215        14.66541        -0.48135
C         35.52651        15.99671        -1.17757
C         36.93433        13.99656        -0.44757
C         36.83247        16.69187        -1.45126
C         35.52146        18.77104        -1.80593
C         36.76152        18.07793        -1.86488
C         38.18509         2.36327        -1.06310
C         38.24838         3.74464        -0.75262
C         39.40234         1.60104        -1.08277
C         39.48653         4.35029        -0.43740
C         38.30114         6.43016         0.26827
C         38.35516         7.65564         0.97870
C         39.54402         5.72588        -0.03000
C         39.61232         8.45257         1.15710
C         38.31979        10.76858         0.93629
C         38.26199        12.02924         0.25731
C         39.59456         9.99321         1.11675
C         39.46268        12.69511        -0.16888
C         38.11147        14.63376        -0.93511
C         38.01822        15.97930        -1.47018
C         39.38940        13.99543        -0.76883
C         39.21349        16.62814        -2.04270
C         37.93464        18.74372        -2.26957
C         39.17848        18.07753        -2.31348
C         40.61199         2.19185        -0.82593
C         40.68955         3.57863        -0.48919
C         41.92412         4.20805        -0.20663
C         40.78408         6.31616         0.25577
C         40.87139         7.73650         0.72135
C         41.96914         5.54898         0.13811
C         41.99860         8.53811         0.19961
C         40.83810        10.69835         0.62109
C         40.72985        12.07998         0.05493
C         41.97904         9.88049         0.14740
C         41.89167        12.78266        -0.25398
C         40.60843        14.66082        -1.11924
C         40.58062        15.96232        -1.83896
C         41.82920        14.05754        -0.83297
C         41.74000        16.85241        -1.87009
C         40.37623        18.74808        -2.59115
C         41.62981        18.14200        -2.33514
O         15.22770        14.50116         2.16270
O         34.77857         4.61465        -1.89668
O         15.29261        12.80543        -0.96900
O         20.80838        11.24658         2.27690
O         18.49700         2.37285        -1.18505
O         34.00756         7.89848         2.69068
O         26.22408         5.70237         1.65665
O          7.72462        13.22576        -1.68951
O         20.81488        15.81736         2.45763
O         37.21896         9.22105         2.37586
O         31.45450        10.36372         2.73006
O         40.52993        10.60113         2.05388
O         19.12431        16.70070        -0.56759
O          3.99021         3.40624        -1.85990
O         39.85328        15.85804        -3.11280
O         25.60128        11.11779         2.35017
O         27.76540         4.16030        -1.44139
O         27.90929        14.87433         2.39167
O          4.29870        17.00632        -2.12963
O         28.72810        16.52465        -0.93368
O         17.37533         9.54579        -1.46995
O         30.79105         6.72759         2.37480
O         40.54173         7.91506         2.14264
O         14.74425         4.89378        -1.96571
O          5.28310        10.16811         1.04003
O          4.71107         5.76650        -2.63671
H          4.17032         5.00261        -2.94935
O          8.07096        12.12809         1.80385
H          8.77783        11.65510         2.29529
O         34.93109        15.72089        -2.48345
H         35.58157        15.21167        -3.01098
O         33.70461         2.90802         1.15465
H         33.58010         3.54838         1.88658
O         10.98427         3.92942         1.58566
H         11.69453         3.39828         2.00574
O         25.80575        20.38910        -0.31585
H         25.72155        19.95151        -1.18764
O         32.79278         2.98582        -2.42133
H         33.51096         3.60397        -2.70125
O         18.26781        11.96181         2.47528
H         19.12801        11.60463         2.81135
O         37.26195         5.23847        -2.27607
H         36.36760         5.46250        -2.62356
O          5.91245        14.87966        -2.46104
H          6.50755        14.16173        -2.78252
O          4.95527        14.61332         1.04910
H          4.28414        14.09790         1.54427
O         24.90157        10.40836        -1.15844
H         24.29596         9.82697        -1.68655
O         10.80202        10.33801         2.06827
H         10.84844         9.36589         2.20198
O         25.00279         5.91572        -1.75068
H         24.55347         5.20914        -2.26294
O         30.01930        18.64022         1.79603
H         30.09874        19.59554         2.00132
O         21.11662         3.10267        -1.98096
H         20.30227         2.61328        -2.23970
O         23.41359         8.14944        -1.67037
H         24.04851         7.48411        -2.04637
O          7.37054         8.75299        -2.38678
H          7.36937         7.85724        -2.78893
O         35.13076        17.22890         0.83978
H         34.49245        17.78345         1.33505
O         19.74297        12.79511        -0.82155
H         18.97530        13.28133        -1.19244
O         12.12154         5.61359        -2.32024
H         12.99222         5.27049        -2.64071
O         20.85300         7.62018         2.07422
H         20.86904         8.51834         2.47143
O          8.62974         1.80829        -2.17157
H          7.78569         2.16529        -2.52245
O          4.60999        18.21693         1.28427
H          4.76864        19.04071         1.79124
O         12.17791        12.73235         2.34018
H         11.84542        11.83816         2.59554
H          0.51045         1.66899         1.28896
H          0.36864         4.05041         0.67095
H          2.64319         0.41729         1.11648
H          0.17489         5.82330        -0.13561
H          0.13532         8.25285        -0.34832
H          0.11455        10.17148        -0.83506
H          0.14220        12.60319        -0.87433
H          0.13907        14.52192        -0.71736
H          0.14453        16.97277        -0.65064
H          1.43258        19.16775        -0.95962
H          5.04376         0.41709         0.58038
H          3.54025        20.37672        -0.56222
H          7.40506         0.36118         0.12727
H          6.07129        20.36841        -0.35435
H          9.94746         0.31761        -0.22516
H          8.51982        20.34778        -0.20594
H         12.33567         0.41216         0.52001
H         10.95943        20.35513         0.05080
H         14.77287         0.56034         0.82153
H         13.42381        20.36261         0.31492
H         17.07013         0.73745         1.39164
H         15.88782        20.37621         0.53893
H         19.86104         0.54310         1.27925
H         18.35352        20.41104         0.70677
H         22.18309         0.41191         0.77332
H         20.92759        20.41367         0.77959
H         24.63729         0.30858         0.28545
H         23.41072        20.35790         0.56060
H         27.11898         0.30577        -0.00855
H         25.97462        19.91459         1.67252
H         29.64486         0.32484        -0.22937
H         28.30091        20.27179         0.03424
H         32.02768         0.48611        -0.97493
H         30.79274        20.12096        -0.77855
H         34.51521         0.63456        -1.46095
H         33.08349        19.89356        -1.62339
H         36.94104         0.63749        -1.50363
H         35.46801        19.78797        -2.22522
H         39.34712         0.53023        -1.32663
H         37.89008        19.81468        -2.51857
H         41.53915         1.60189        -0.86535
H         42.85176         3.61956        -0.25086
H         42.93738         6.00961         0.37800
H         42.85781         8.00042        -0.22802
H         42.82854        10.39915        -0.31971
H         42.87853        12.35035        -0.04334
H         42.76967        14.56606        -1.08328
H         42.70821        16.49925        -1.48905
H         40.34272        19.81043        -2.87238
H         42.53456        18.76205        -2.41256
