         274
 CSIRO Nanostructure Databank - Neutral Graphene Oxide Data Set
C        -11.25710         0.69008        -0.50902
C        -10.06617         1.53908        -0.37811
C         -8.76761         0.78636        -0.48653
C         -7.53499         1.55292        -0.09023
C         -6.34971         0.88930        -0.20592
C         -5.06021         1.60226        -0.29278
C         -3.80098         0.88992        -0.66249
C         -2.46254         1.53356        -0.36114
C         -1.29472         0.69834         0.21500
C          0.02145         1.44887        -0.01689
C          1.23923         0.67908         0.49642
C          2.48382         1.48126         0.09154
C          3.77744         0.69956         0.03951
C          5.00807         1.49894        -0.53714
C          6.31434         0.77984        -0.06805
C          7.55390         1.69808        -0.50589
C          8.97541         1.13495        -0.71766
C         10.10339         1.56348         0.16107
C         11.25473         0.65486         0.22614
C        -10.10595         2.89705        -0.32026
C         -8.95258         3.78262         0.13512
C         -7.62448         3.00358         0.24182
C         -6.32607         3.74901         0.24102
C         -5.02455         3.00134         0.21701
C         -3.73548         3.72769         0.18872
C         -2.45732         2.99004        -0.04673
C         -1.37351         3.54355         0.85173
C         -0.03029         2.84822         0.62723
C          1.23456         3.61092         0.49714
C          2.46862         2.84117         0.14250
C          3.70018         3.67942         0.08302
C          5.00046         3.02965        -0.29342
C          6.27537         3.70829         0.17144
C          7.54595         2.92660         0.41018
C          8.83052         3.60297         0.95218
C         10.10956         2.85092         0.61191
C         -8.76503         5.12552        -0.62587
C         -7.54416         5.94381        -0.17960
C         -6.27267         5.18299        -0.16305
C         -4.95455         5.91024        -0.16201
C         -3.60211         5.21880        -0.04964
C         -2.63785         5.86865         0.97408
C         -1.30156         5.09417         0.95461
C         -0.00424         5.82503         0.81119
C          1.14367         5.08075         0.10337
C          2.45083         5.79433         0.30208
C          3.58634         5.08987         0.62316
C          4.69565         5.82537         1.23188
C          6.55286         5.15535        -0.14375
C          7.61206         5.83003         0.68914
C          8.77154         5.13188         0.90568
C         -7.46622         7.30920        -0.18449
C         -6.21132         8.03940        -0.02060
C         -4.97787         7.36245         0.06814
C         -3.75002         8.04255         0.30917
C         -2.51902         7.34198         0.59547
C         -1.31427         8.02014         0.56459
C          0.02375         7.36571         0.89063
C          1.12674         7.98967         0.01349
C          2.45705         7.26099         0.16682
C          3.73609         7.97191         0.48973
C          4.88503         7.18489         1.01824
C          6.16786         7.87091         1.13183
C          7.40158         7.23854         1.02080
C         -6.18688         9.46589         0.03124
C         -4.99484        10.15391         0.11055
C         -3.74209         9.47163         0.23810
C         -2.50619        10.15389         0.25943
C         -1.28238         9.45179         0.34271
C         -0.04072        10.14947         0.31673
C          1.21219         9.47238         0.33525
C          2.40201        10.11574         0.62023
C          3.63309         9.36576         1.07189
C          4.97592        10.05287         0.99496
C          6.11918         9.33780         1.11565
C        -11.25672        -0.63794        -0.22767
C        -10.05591        -1.31107         0.33022
C         -8.78349        -0.55205         0.22322
C         -7.44810        -1.29091         0.32498
C         -6.34790        -0.58078        -0.46005
C         -5.10478        -1.33488        -0.82993
C         -3.75618        -0.61402        -1.00549
C         -2.66752        -1.23273        -0.11283
C         -1.25263        -0.74322        -0.27156
C         -0.09293        -1.49020        -0.26508
C          1.21515        -0.82137         0.06138
C          2.49478        -1.51623        -0.31184
C          3.62696        -0.60633        -0.81628
C          4.97978        -1.33926        -0.96908
C          6.30584        -0.61837        -0.69099
C          7.53538        -1.42417        -0.45285
C          8.73708        -0.98005         0.37381
C         10.04315        -1.54718        -0.08333
C         11.23013        -0.70314         0.09170
C         -9.94350        -2.76777         0.65196
C         -8.76674        -3.43368         0.58580
C         -7.58031        -2.78028        -0.11294
C         -6.22377        -3.50170         0.16019
C         -5.09353        -2.85730        -0.68490
C         -3.84784        -3.67611        -0.92286
C         -2.49052        -3.16930        -1.38525
C         -1.25968        -3.67486        -0.68636
C         -0.07184        -2.93532        -0.52951
C          1.19619        -3.66022        -0.66064
C          2.46467        -2.94155        -0.77410
C          3.66683        -3.59397        -0.94236
C          4.95785        -2.84225        -0.98579
C          6.20676        -3.62000        -0.66141
C          7.49917        -2.91548        -0.47486
C          8.80220        -3.62730        -0.87601
C         10.05612        -2.84462        -0.49737
C         -8.59240        -4.80364         1.21830
C         -7.47856        -5.67512         0.65859
C         -6.36171        -5.01289        -0.06883
C         -5.09181        -5.79113        -0.30150
C         -3.78212        -5.01119        -0.17628
C         -2.50802        -5.79721        -0.44681
C         -1.29748        -5.10014        -0.53605
C         -0.01556        -5.83942        -0.34160
C          1.19363        -5.04641        -0.73735
C          2.40312        -5.79866        -1.08712
C          3.73019        -5.05194        -1.20904
C          4.98015        -5.80656        -0.89204
C          6.29350        -5.07824        -1.09826
C          7.50923        -5.72428        -0.43686
C          8.69463        -5.04781        -0.35916
C         -7.42285        -6.98969         0.99883
C         -6.27748        -7.87392         0.67920
C         -5.05569        -7.23922         0.05782
C         -3.72215        -7.82799         0.48018
C         -2.50963        -7.21575        -0.19020
C         -1.34764        -7.96061        -0.27406
C         -0.08619        -7.33823        -0.86654
C          1.19128        -7.85519        -0.13959
C          2.43136        -7.27264        -0.79640
C          3.74798        -7.95848        -0.56109
C          4.97145        -7.11919        -0.48870
C          6.14549        -7.68611         0.18240
C          7.34502        -7.01729         0.18279
C         -6.02786        -9.11492         1.46830
C         -4.88570        -9.81757         1.35064
C         -3.78427        -9.37062         0.40844
C         -2.41501        -9.98828         0.60369
C         -1.30772        -9.35997         0.10926
C         -0.03502       -10.10857        -0.23648
C          1.25153        -9.34661         0.02735
C          2.42446        -9.98707         0.20779
C          3.80022        -9.39765        -0.04061
C          4.80945        -9.56764         1.06249
C          5.94682        -8.84350         1.04874
O          7.28004         2.25676        -1.80702
H          7.51549         1.56346        -2.46771
O          0.27847         1.58906        -1.42094
H         -0.49743         2.01678        -1.85693
O         -2.11348         2.55077        -1.37546
O         -6.98294         3.41100         1.50168
O         -3.20480         5.78651         2.28601
H         -3.14909         4.84559         2.57706
O          2.97851        -5.46149        -2.38746
O         -2.33836        -2.70016        -2.50139
O          3.39238         7.74721        -0.89013
O         -2.98296        -1.74383         0.95882
O          4.01265         0.33322         1.40533
H          3.16709        -0.01650         1.78253
O          0.79470         5.10604        -1.31358
H          1.54850         4.73218        -1.82117
O          3.06475        -8.00400        -1.86914
O          0.70899         7.90635        -1.36234
O         -1.81045         3.16299         2.18066
H         -1.04022         3.32428         2.77389
O          9.26038         0.60802        -1.78371
O         -0.43019         5.34440         2.11269
O          8.66073        -0.39120         1.43884
O          6.14085         5.65965        -1.17253
O          6.76136        -3.44075         0.67895
O          1.07559        -7.25845         1.20416
O          6.55646         3.09739         1.47535
O         -5.94054        -8.04108        -0.74360
O         -0.05013        -7.57861        -2.19742
O         -5.85631        -3.33843         1.53450
H         -6.56379        -3.72122         2.10605
O         -6.01576        -5.51766        -1.38437
O         -9.34487         4.19730         1.46586
H         -9.12289         3.48304         2.09940
O         -7.90882        -2.85209        -1.50443
O          4.31847       -10.19693        -1.14460
H          3.81553        -9.91762        -1.94373
O          6.37998         0.54257         1.32360
H          6.11689         1.34502         1.82537
O          5.05567        -2.05930        -2.23444
O          0.78529         3.14052         1.80802
O         -4.55226         1.59555        -1.69170
O         -4.29967         3.27661         1.46113
O         -6.09033        -0.94531        -1.85368
O         -5.55822         5.44157        -1.43247
O         -0.07819       -10.30182        -1.66382
H         -0.04923        -9.39820        -2.09077
O         -4.85628        -3.51641        -1.95123
O         -9.49716        -0.51204         1.48888
O          6.49831        -5.05774        -2.54269
H          6.28243        -5.94354        -2.90399
O          2.04023        -1.52507         1.07284
O          0.10825        -6.13755         1.11083
O          8.83941         3.40002         2.40807
H          7.90112         3.32733         2.70067
O          8.86422        -3.66385        -2.32358
H          8.05202        -4.11907        -2.66084
O         -8.24469        -4.56003         2.60734
H         -8.93294        -3.98353         3.00072
O          4.25100         3.74115        -1.30876
O         -8.55131         4.80732        -2.00085
H         -8.22089         5.60054        -2.46964
O          7.28099        -0.80516        -1.74715
O         -4.14033        -9.81034        -0.92081
H         -3.46742        -9.47729        -1.55108
O         -3.58083        -7.44247         1.89057
H         -2.71433        -7.77732         2.20839
H          0.77390         6.96314        -1.65092
O         -1.49103         0.60950         1.64920
H         -2.05238        -0.17631         1.85244
O          3.14482        -0.25187        -2.12732
H          3.69933        -0.72777        -2.78794
O          0.36011         7.72650         2.24512
H         -0.09672         7.08128         2.83493
O          3.37885         9.13001         2.50312
H          3.34055         9.99991         2.95343
O          1.24230         0.65961         1.93536
H          0.31152         0.53962         2.24235
O         -7.03758        -1.18477         1.69732
H         -7.85467        -1.05133         2.23401
O         -3.36037        -0.63090        -2.37185
H         -4.13474        -0.35466        -2.90775
O         -8.35526         1.66057        -2.63864
H         -7.56196         1.42321        -3.17825
O          5.41646         5.16522         2.17519
H          6.06956         5.77352         2.57866
O         -2.93725         5.38258        -1.31904
H         -3.59837         5.21042        -2.02721
O          4.99202         1.33753        -1.95946
H          4.52670         2.11396        -2.34624
O         -8.61948         0.41778        -1.92586
H         -7.16339        -2.48402        -2.03721
O         -3.64106        -4.67943         1.23152
H         -3.58584        -5.52865         1.73698
H         12.19773        -1.23104         0.12091
H         12.23106         1.12562         0.42898
H         11.01459         3.23581         1.11202
H          9.60119         5.63742         1.42965
H          8.30328         7.86057         1.14741
H          7.08520         9.86692         1.11268
H          5.01582        11.15186         0.93543
H          2.37327        11.20173         0.82009
H         -0.05828        11.25117         0.34812
H         -2.49360        11.25059         0.16740
H         -4.99485        11.25328         0.08320
H         -7.13456        10.01878        -0.04162
H         -8.38514         7.90756        -0.29208
H         -9.69864         5.74540        -0.50652
H        -11.09141         3.39204        -0.32822
H        -12.19297         1.17060        -0.83358
H        -12.17689        -1.22727        -0.35308
H        -10.82831        -3.25778         1.09379
H         -9.56875        -5.36318         1.18886
H         -8.23002        -7.41478         1.61740
H         -6.81826        -9.45467         2.15592
H         -4.74533       -10.74501         1.92671
H         -2.36230       -11.06028         0.85459
H         -0.01366       -11.11545         0.24856
H          2.40917       -11.08484         0.31209
H          4.68686       -10.40060         1.76991
H          6.74699        -9.06175         1.77286
H          8.19783        -7.43523         0.73917
H          9.56815        -5.53354         0.10358
H         11.01434        -3.31472        -0.77540
