         732
 CSIRO Nanostructure Databank - Neutral Graphene Oxide Data Set
C         23.03946        24.57047        -1.59175
C         21.80926        25.29520        -1.71635
C         22.90474        27.43137        -1.17657
C         21.73161        26.64852        -1.57774
C         22.96921        28.89837        -1.32746
C         21.82357        29.65675        -1.70771
C         22.90366        31.74326        -0.89628
C         21.79017        31.02052        -1.59794
C         23.02007        33.22894        -1.17719
C         21.97390        34.01471        -1.67220
C         23.23218        36.08407        -1.27559
C         22.09705        35.40198        -1.78009
C         23.42508        37.50024        -1.40208
C         22.58869        38.30280        -2.25147
C         23.92858        40.37188        -1.76262
C         22.82711        39.62169        -2.45791
C         23.39418        41.69115        -1.22825
C         22.81059        42.66761        -2.16928
C         23.18723        44.53110        -0.59961
C         22.73398        43.98879        -1.87161
C         23.17861        45.99933        -0.40425
C         22.12846        46.70132        -1.03106
C         23.21356        48.80113        -0.60568
C         22.12131        48.09013        -1.09456
C         25.55119        23.08501        -1.21821
C         25.52210        24.50018        -1.26737
C         24.24292        25.20559        -1.38189
C         25.47637        27.43253        -1.33774
C         24.22723        26.65851        -1.11141
C         25.46753        28.87587        -1.07126
C         24.21042        29.59703        -1.09713
C         25.49349        31.76160        -1.13982
C         24.20666        30.99567        -1.03917
C         25.40266        33.13741        -0.51306
C         24.20656        33.88329        -0.74026
C         25.39986        35.94438        -0.07195
C         24.26804        35.30546        -0.67516
C         25.41302        37.36438         0.06234
C         24.49134        38.14192        -0.68701
C         25.48977        40.20968         0.25337
C         24.60794        39.56304        -0.67419
C         25.22246        41.62332         0.64938
C         23.99505        42.24638         0.03014
C         25.38225        44.68895         1.31097
C         23.71722        43.65970         0.30807
C         25.28549        46.17228         1.19897
C         24.23145        46.72502         0.21198
C         25.46958        48.88810         0.44427
C         24.26926        48.13649         0.04537
C         25.52804        50.30606         0.34325
C         27.95601        23.08187        -0.80665
C         26.73033        22.40029        -1.00151
C         27.95882        24.50460        -0.85183
C         26.74119        25.19750        -1.09402
C         27.99446        27.39981        -0.87026
C         26.78545        26.66390        -1.27015
C         27.94457        28.81280        -0.74194
C         26.69885        29.54150        -0.87103
C         27.89487        31.63364        -0.41949
C         26.70822        30.96153        -0.73413
C         27.85492        33.11431        -0.30707
C         26.55668        33.79452        -0.08483
C         27.75901        35.82244         0.80029
C         26.53917        35.16963         0.26499
C         27.74481        37.27854         1.14515
C         26.46319        38.04210         0.83336
C         27.60389        40.11413         1.75799
C         26.50207        39.50516         0.89303
C         27.63739        41.66527         1.65004
C         26.36364        42.40218         1.27998
C         27.80400        44.55656         1.07946
C         26.49520        43.90209         1.21337
C         27.79922        46.00440         0.96154
C         26.63935        46.77056         0.96349
C         27.86357        48.93300         1.07796
C         26.63572        48.19512         0.80536
C         27.92131        50.36888         0.84649
C         26.70736        51.01312         0.51142
C         30.40117        20.25940        -0.35671
C         29.21910        20.94738        -0.53863
C         30.41812        23.07905        -0.45797
C         29.19325        22.36203        -0.59398
C         30.40639        24.52558        -0.47918
C         29.19908        25.23006        -0.66434
C         30.40343        27.39327        -0.39304
C         29.18660        26.67444        -0.62802
C         30.38987        28.81102        -0.31905
C         29.14558        29.52780        -0.43277
C         30.34739        31.63822         0.25321
C         29.11185        30.93313        -0.25828
C         30.36025        33.11225         0.01072
C         29.11322        33.85517        -0.07176
C         30.33410        35.99740         0.65312
C         29.09117        35.18965         0.59271
C         30.30599        37.36736         1.02613
C         29.01842        38.06131         1.20809
C         30.23286        40.14275         1.72079
C         28.96319        39.42072         1.41313
C         30.20422        41.64721         1.88946
C         28.92973        42.42951         1.68132
C         30.31409        44.45777         1.07247
C         29.00334        43.83492         1.18191
C         30.35857        45.86160         0.57455
C         29.08441        46.67394         0.64257
C         30.41604        48.89558         0.72300
C         29.20461        48.13182         0.95634
C         30.41855        50.29554         0.91947
C         29.17665        51.03612         0.94408
C         30.41926        53.12929         1.02246
C         29.22177        52.45583         0.98071
C         33.00467        18.86429        -0.25906
C         32.86887        20.20938        -0.00765
C         31.63154        20.95083        -0.23491
C         32.95795        23.08086        -0.31053
C         31.63225        22.36011        -0.28997
C         32.86341        24.56700        -0.10652
C         31.64774        25.24629        -0.28421
C         32.86268        27.39330        -0.18562
C         31.63758        26.68091        -0.26488
C         32.85884        28.82309        -0.20769
C         31.62679        29.52596        -0.20372
C         32.83346        31.65406        -0.14986
C         31.63796        30.95149        -0.10974
C         32.85491        33.13988        -0.08076
C         31.56262        33.89869        -0.01346
C         32.77106        35.94655         0.76893
C         31.55918        35.31109         0.46868
C         32.78200        37.33876         1.09121
C         31.54199        38.05673         1.19164
C         32.74520        40.16243         1.70887
C         31.55815        39.47684         1.52011
C         32.79411        41.62089         2.02362
C         31.49665        42.42409         1.95200
C         32.78067        44.57480         1.54743
C         31.48711        43.83619         1.48334
C         32.87517        45.94371         0.99859
C         31.66464        46.60821         0.52825
C         32.92116        48.84909         0.86349
C         31.67771        48.17019         0.49999
C         32.92943        50.28763         1.01473
C         31.66544        51.02360         0.97576
C         32.90607        53.20328         1.20083
C         31.65154        52.42642         1.04182
C         32.99466        54.60190         0.75831
C         35.32880        18.75679         0.56190
C         34.21321        18.15429         0.01192
C         35.28030        20.20014         0.87575
C         33.98741        20.93685         0.63791
C         35.32199        23.17888         0.83615
C         33.99617        22.43326         0.59796
C         35.31953        24.59135         0.28644
C         34.09308        25.27424         0.05527
C         35.33845        27.40231        -0.03892
C         34.10234        26.69659        -0.06527
C         35.33610        28.83627        -0.14037
C         34.09467        29.53773        -0.18797
C         35.31561        31.67466        -0.22427
C         34.08560        30.96079        -0.20272
C         35.31046        33.19270        -0.16237
C         34.05072        33.76910         0.40362
C         35.30048        35.91834         0.79825
C         34.02949        35.13666         1.01933
C         35.26063        37.33436         1.01429
C         34.03642        38.00867         1.26325
C         35.28876        40.19675         1.29114
C         34.07888        39.42192         1.79998
C         35.30406        41.58834         1.33146
C         34.17693        42.31186         2.03745
C         35.33854        44.50132         1.30447
C         34.10288        43.82081         1.75002
C         35.33709        45.91014         1.13492
C         34.08699        46.63660         1.00521
C         35.35958        48.76645         0.97480
C         34.11612        48.09058         0.91027
C         35.42912        50.22741         1.33389
C         34.13970        50.96134         1.12386
C         35.45688        53.11987         0.84761
C         34.21630        52.42702         1.24930
C         35.45580        54.50574         0.66192
C         34.19435        55.21782         0.61086
C         37.86192        15.99098         0.49193
C         36.65657        16.66604         0.62185
C         37.83796        18.81013         0.63063
C         36.60528        18.07221         0.64150
C         37.84418        20.22890         0.60800
C         36.57574        20.96779         0.78458
C         37.81544        23.13230         0.42153
C         36.50644        22.38728         0.24112
C         37.80220        24.54069         0.35763
C         36.54702        25.27360         0.23857
C         37.81106        27.41535         0.08890
C         36.56479        26.69570         0.07700
C         37.81652        28.84530        -0.09593
C         36.55491        29.55322        -0.19578
C         37.79137        31.73694        -0.43653
C         36.52479        30.97473        -0.28032
C         37.79004        33.17011        -0.01155
C         36.52286        33.72663         0.59809
C         37.75134        35.93033         0.71507
C         36.50971        35.24003         0.64937
C         37.74261        37.34104         0.89522
C         36.51007        38.05004         1.00354
C         37.75173        40.17816         0.99146
C         36.51019        39.47640         1.06916
C         37.74986        41.60710         0.99585
C         36.52605        42.31337         1.13518
C         37.77008        44.44948         0.94840
C         36.53642        43.75582         1.13355
C         37.78815        45.87607         0.90741
C         36.56931        46.60312         0.96005
C         37.78283        48.76341         0.73126
C         36.57399        48.04966         0.88293
C         37.80649        50.19396         0.54754
C         36.63283        50.94478         0.76915
C         37.84674        53.01533         0.19008
C         36.64815        52.34913         0.60322
C         37.88278        54.44589         0.10438
C         36.69262        55.19232         0.36024
C         37.93184        57.25536        -0.00802
C         36.75919        56.60590         0.31813
C         40.34616        14.61827        -0.18956
C         40.32613        15.99503         0.10815
C         39.08349        16.68819         0.38338
C         40.31475        18.83401         0.54314
C         39.08340        18.10809         0.51732
C         40.29731        20.26324         0.64561
C         39.05345        20.96131         0.57015
C         40.26661        23.12712         0.55939
C         39.02972        22.41312         0.52399
C         40.24920        24.54590         0.48669
C         39.03568        25.25871         0.37329
C         40.26051        27.42974         0.17977
C         39.02757        26.70891         0.24246
C         40.25719        28.84719        -0.01196
C         39.03334        29.54631        -0.15162
C         40.30562        31.74391        -0.07362
C         39.10290        30.98867        -0.61709
C         40.28060        33.12757         0.23131
C         39.05436        33.84800         0.32252
C         40.22974        35.90895         0.91321
C         39.00636        35.21564         0.64346
C         40.21841        37.31611         1.06379
C         38.99146        38.04358         0.98633
C         40.24191        40.17574         1.03132
C         38.99010        39.46338         0.99879
C         40.23403        41.60032         0.95145
C         38.99771        42.31393         0.92965
C         40.24772        44.43774         0.76410
C         39.00456        43.73303         0.88424
C         40.24907        45.87227         0.64534
C         39.04051        46.56283         0.78958
C         40.30234        48.72554         0.31912
C         39.04206        48.02734         0.80093
C         40.14114        50.05276        -0.31458
C         38.97607        50.85994         0.07145
C         40.23580        52.92137        -0.54657
C         39.01419        52.25376        -0.11568
C         40.28560        54.34881        -0.55952
C         39.09749        55.11497        -0.23564
C         40.30929        57.23041        -0.73493
C         39.11972        56.53936        -0.31335
C         40.32012        58.60169        -1.00420
C         42.74472        14.67171        -0.47603
C         41.54158        13.96837        -0.48466
C         42.77318        16.04668        -0.17940
C         41.55150        16.72936         0.10556
C         42.80498        18.82096         0.53178
C         41.55592        18.13428         0.39027
C         42.80889        20.24412         1.07089
C         41.52423        20.99820         0.75521
C         42.78253        23.10363         0.45530
C         41.50483        22.38435         0.67760
C         42.76417        24.58415         0.28783
C         41.52212        25.31864         0.73489
C         42.70159        27.41996        -0.01059
C         41.50053        26.74175         0.23861
C         42.69783        28.83430        -0.12234
C         41.50321        29.54753        -0.05483
C         42.73013        31.65199         0.31727
C         41.53623        31.01355         0.02982
C         42.82968        33.14703         0.31516
C         41.49887        33.82858         0.56390
C         42.66203        35.82418         1.57046
C         41.46109        35.16113         0.93180
C         42.65344        37.31886         1.35293
C         41.47470        38.02774         1.22024
C         42.68840        40.22371         1.27132
C         41.47178        39.48230         1.17023
C         42.69563        41.60916         1.09739
C         41.47003        42.31402         0.93612
C         42.72220        44.43605         0.58370
C         41.46737        43.73682         0.79530
C         42.70845        45.83513         0.23272
C         41.48406        46.55874         0.30804
C         42.67150        48.61643        -0.41294
C         41.48678        47.93114        -0.00439
C         42.66442        49.99914        -0.74349
C         41.38547        50.72216        -0.83878
C         42.62335        52.83197        -1.20318
C         41.40655        52.19110        -0.86322
C         42.63852        54.25206        -1.28246
C         41.49024        54.99535        -0.91864
C         42.62855        57.09601        -1.72925
C         41.62317        56.48777        -0.77930
C         42.55788        58.46705        -1.96687
C         41.44925        59.22559        -1.55162
C         45.24260        16.19375        -0.46736
C         44.02751        16.77548        -0.10220
C         45.29940        18.78230         0.80227
C         44.00463        18.13664         0.36021
C         45.29615        20.27691         0.58981
C         44.08561        21.00525         0.72422
C         45.32235        23.17778         0.61476
C         44.06179        22.40240         0.64425
C         45.35459        24.72521         0.54927
C         44.02249        25.36472         0.24651
C         45.20734        27.44488        -0.29967
C         43.97933        26.70503        -0.04032
C         45.24002        28.81222        -0.22372
C         43.97403        29.61906        -0.30552
C         45.26615        31.61347         0.49940
C         43.97043        30.83597         0.61026
C         45.26793        32.96939         0.85479
C         43.95350        33.61888         1.25864
C         45.17302        35.80515         1.26601
C         43.99024        35.13106         1.29322
C         45.17161        37.29111         1.21850
C         43.92264        38.02491         1.56241
C         45.26236        40.23345         1.39464
C         43.96073        39.52576         1.57073
C         45.25863        41.65297         1.18165
C         43.95612        42.41011         1.33501
C         45.15028        44.39476         0.19420
C         43.91768        43.74109         0.63299
C         45.17175        45.84580         0.02298
C         43.92214        46.52967        -0.02534
C         45.13120        48.61402        -0.58053
C         43.91370        47.91882        -0.35643
C         45.10839        49.98967        -0.95103
C         43.86288        50.68059        -1.04031
C         45.01890        52.69217        -1.90272
C         43.84837        52.07788        -1.40170
C         44.87301        54.08286        -2.34761
C         43.78014        54.88537        -1.90064
C         44.64906        56.82105        -3.13479
C         43.70489        56.27786        -2.23956
C         46.47514        16.89341        -0.33968
C         47.85605        18.85502         0.48463
C         46.54941        18.11840         0.26043
C         47.70114        20.25917        -0.06109
C         46.49198        20.91409         0.16426
C         47.61883        23.06687        -0.54409
C         46.53453        22.38473         0.18999
C         47.28138        24.38795        -0.99919
C         46.38373        25.24103        -0.44420
C         47.72442        27.43767        -0.76427
C         46.37529        26.69587        -0.89565
C         47.70847        28.86332        -0.43441
C         46.49339        29.53959        -0.20789
C         47.71221        31.64131         0.28011
C         46.47738        30.93691         0.16492
C         47.71561        33.01993         0.64834
C         46.48192        33.69839         0.88447
C         47.65764        35.81450         1.29415
C         46.46756        35.12613         1.13615
C         47.68019        37.26982         1.57905
C         46.44798        38.05214         1.28949
C         47.73120        40.22140         1.36632
C         46.45862        39.53285         1.43806
C         47.72868        41.67062         1.20678
C         46.45636        42.33088         1.03115
C         47.66972        44.53630         0.60227
C         46.49116        43.70053         0.46903
C         47.64806        45.88109         0.23061
C         46.39355        46.53693        -0.08175
C         47.58094        48.68707        -0.38068
C         46.38142        47.94201        -0.37199
C         47.56992        50.05540        -0.85426
C         46.32552        50.68340        -1.23077
C         47.56954        52.51232        -2.24942
C         46.28917        51.97565        -1.83687
C         47.71053        53.52150        -3.23705
C         45.71652        54.67052        -3.31959
C         45.61396        56.00693        -3.71479
C         50.11970        18.76651        -0.60570
C         49.08796        18.14574        -0.01792
C         50.08811        20.20879        -0.98557
C         48.84225        20.96901        -0.68022
C         50.10240        23.17005        -0.99642
C         48.83762        22.45551        -0.78915
C         50.14087        24.64153        -0.96753
C         49.10619        25.42893        -1.39410
C         50.21936        27.58997        -1.20220
C         48.93050        26.83315        -1.05910
C         50.19260        28.97178        -0.62003
C         48.95014        29.59151        -0.32629
C         50.19277        31.67500         0.16416
C         48.95434        30.96851         0.05025
C         50.19235        33.05972         0.55447
C         48.96326        33.69531         0.82504
C         50.25999        35.85819         1.25810
C         48.93585        35.07760         1.31091
C         50.16801        37.32920         1.05400
C         48.96412        38.05015         1.55216
C         50.21763        40.22831         1.37030
C         48.92823        39.51967         1.36223
C         50.20322        41.75749         1.30971
C         48.89985        42.41418         1.16187
C         50.15523        44.59605         0.81969
C         48.87891        43.92565         1.25628
C         50.12765        46.00666         0.56938
C         48.85457        46.67967         0.30409
C         50.00807        48.88739         0.23354
C         48.80154        48.05175         0.02955
C         49.99432        50.36379        -0.17734
C         48.77220        50.77162        -0.96941
C         50.05646        52.60554        -2.01531
C         48.79566        51.97841        -1.71649
C         50.09121        53.67999        -2.90485
C         48.92713        54.10659        -3.55644
C         52.58942        20.33242        -0.58898
C         51.39444        20.98106        -1.23092
C         52.57350        23.18351        -0.72844
C         51.31062        22.47327        -0.90300
C         52.60799        24.58962        -0.58586
C         51.32308        25.34291        -0.34820
C         52.62269        27.46151        -0.66025
C         51.42775        26.80333        -0.74581
C         52.67426        28.95103        -0.97095
C         51.40506        29.65286        -0.51461
C         52.67505        31.72725        -0.03145
C         51.42294        31.01341        -0.11445
C         52.67303        33.11108         0.26212
C         51.44236        33.79397         0.56255
C         52.67751        35.95030         0.62084
C         51.46844        35.18420         0.76865
C         52.68616        37.36040         0.67140
C         51.41903        38.09710         0.72761
C         52.62508        40.25736         0.75274
C         51.45264        39.54851         0.96266
C         52.58812        41.70641         0.64504
C         51.42199        42.43440         0.82882
C         52.59577        44.59144         0.58215
C         51.39046        43.88577         0.71348
C         52.62505        46.05109         0.89797
C         51.33288        46.70821         0.48356
C         52.58874        48.85696         0.05728
C         51.32959        48.16854         0.38882
C         52.54265        50.18849        -0.45250
C         51.30553        50.83168        -0.78208
C         52.55455        52.65039        -1.80742
C         51.31107        52.03210        -1.50998
C         53.73259        21.02733        -0.40531
C         55.04898        23.14919        -0.53943
C         53.79641        22.45700        -0.60644
C         55.07402        24.57611        -0.51568
C         53.83888        25.29594        -0.50265
C         55.09853        27.42131        -0.44678
C         53.85821        26.72712        -0.47198
C         55.08642        28.87653        -0.33177
C         53.92732        29.60564        -0.44538
C         55.13441        31.73636        -0.08439
C         53.91761        31.03317        -0.19438
C         55.13537        33.15568         0.07415
C         53.90629        33.83833         0.28084
C         55.14568        35.96622         0.46813
C         53.92024        35.25224         0.45665
C         55.13703        37.39964         0.55092
C         53.89545        38.10573         0.59183
C         55.07996        40.23596         0.29141
C         53.87329        39.53815         0.53385
C         55.08692        41.68138         0.16261
C         53.79902        42.38513         0.15392
C         55.12660        44.61023         0.29966
C         53.82404        43.92521         0.17562
C         55.13935        46.06419         0.42360
C         53.88272        46.75250         0.42917
C         55.05328        48.87158         0.03840
C         53.82196        48.14332         0.14640
C         55.01768        50.26140        -0.27427
C         53.77505        50.85926        -0.71846
C         53.74951        52.10524        -1.37645
C         57.49630        23.14590        -0.51406
C         56.29188        22.46045        -0.54543
C         57.55221        24.55512        -0.48040
C         56.31865        25.28267        -0.50009
C         57.59823        27.44948        -0.76756
C         56.31379        26.70679        -0.49028
C         57.64101        28.81297        -0.11194
C         56.34608        29.56117         0.02820
C         57.60366        31.69773        -0.15264
C         56.39826        31.03049        -0.06745
C         57.60470        33.17893        -0.43637
C         56.36088        33.87931         0.04555
C         57.65108        35.96387         0.34585
C         56.38044        35.26117         0.26826
C         57.65903        37.42866         0.74393
C         56.34885        38.12803         0.46414
C         57.51956        40.19660        -0.22296
C         56.30478        39.50545         0.24105
C         57.49408        41.70173        -0.34142
C         56.25280        42.42433        -0.00076
C         57.61052        44.53006         0.26000
C         56.28655        43.86464         0.13355
C         57.67061        46.03559         0.49911
C         56.36664        46.78903         0.45514
C         57.33788        49.11614         0.75252
C         56.28467        48.22890         0.39404
C         57.29521        50.48977         0.50825
C         56.16934        51.05109        -0.08851
C         60.04851        24.57634        -0.20528
C         58.82987        25.26565        -0.39552
C         60.08337        27.38832        -0.40691
C         58.86161        26.67672        -0.48093
C         60.09667        28.86313        -0.46290
C         58.88947        29.57938        -0.27775
C         60.09107        31.72099        -0.32755
C         58.86714        30.99239        -0.22665
C         60.08499        33.17373        -0.13158
C         58.88735        33.86625        -0.03194
C         60.13140        36.01164         0.62652
C         58.84987        35.28051         0.26083
C         60.09871        37.44878         0.12856
C         58.87677        38.14229         0.18668
C         59.98482        40.20625        -0.56766
C         58.82094        39.50298        -0.17107
C         59.94937        41.66763        -0.72994
C         58.78142        42.41094        -0.41763
C         59.98701        44.51528        -0.60978
C         58.80926        43.81397        -0.27481
C         60.07083        45.96362        -0.40802
C         59.00716        46.67924         0.20700
C         60.54565        48.60844         0.43282
C         59.32863        47.96514         0.67812
C         61.25099        25.27230        -0.12411
C         61.27606        26.66411        -0.22294
C         61.28205        29.60222        -0.61525
C         61.27636        30.99678        -0.54209
C         61.33142        33.91477        -0.01418
C         61.36598        35.23523         0.26205
C         61.24013        38.12578        -0.32987
C         61.18822        39.47779        -0.65895
C         61.10674        42.39328        -1.07259
C         61.10711        43.77868        -1.05545
C         61.27692        46.63285        -0.71384
C         61.51158        47.94585        -0.32174
O         32.32440        33.79513        -1.36048
O         57.29927        40.84171        -1.53036
O         48.04640        24.83504        -2.09997
O         48.37731        37.62619         2.82083
O         29.58667        46.16585        -0.63392
O         39.98869        48.67659         1.74218
O         33.58883        52.94918         2.47522
O         28.53578        33.80368        -1.46080
O         50.39130        41.05647         2.58741
O         28.59252        48.44747         2.24413
O         46.33858        22.77753         1.61184
O         57.79352        45.08541         1.61538
O         46.61989        53.88629        -4.03573
O         23.52408        27.01270         0.11060
O         45.83965        37.72766        -0.02370
O         43.96077        38.76407         2.83980
O         50.59735        48.75257         1.57088
O         45.88488        43.69103        -0.87717
O         30.09890        40.77066         3.04566
O         49.13179        20.42387        -2.08285
O         35.96399        20.66225         2.08323
O         37.67935        32.81884        -1.43291
O         49.75708        35.34071         2.51258
O         32.12089        42.11819         3.23518
O         40.41569        50.07187        -1.75431
O         53.62539        43.16547        -1.07455
O         26.19622        27.07742        -2.56514
O         33.50109        21.75997         1.77590
O         28.41223        35.06668         1.89608
O         57.02247        28.94249         1.19724
O         28.10008        42.29678         2.88974
O         22.74341        41.46093         0.05887
O         25.28587        41.85434         2.09274
O         50.43977        37.69600        -0.33615
O         26.76305        37.48916         2.18179
O         42.66273        23.76111        -0.91615
O         33.44483        44.50077         2.86626
O         58.42503        48.65563         1.49195
O         31.81498        47.35565        -0.71429
O         24.13258        44.11069         1.57120
O         34.61772        42.20502         3.42772
H         33.95623        42.71199         3.95723
O         43.26410        33.54925        -1.02043
H         42.76435        33.01932        -1.67700
O         25.68605        32.03922        -2.58389
H         26.56076        32.47688        -2.67940
O         42.21542        56.68506         0.57335
H         42.31313        57.65348         0.70029
O         24.96367        40.71290        -2.74582
H         25.18327        39.89617        -3.24180
O         60.15603        36.11165         2.10257
H         60.17548        35.19646         2.45563
O         43.86153        30.37164         1.98147
H         43.71304        31.17227         2.53982
O         39.34036        30.90016        -2.05907
H         38.95514        31.72082        -2.44751
O         33.53938        22.88950        -1.65888
H         32.98132        23.37552        -2.30334
O         22.56260        31.68222         0.55234
H         22.47407        30.73362         0.78931
O         48.75735        44.19593         2.70226
H         49.51431        43.76048         3.15086
O         52.65506        46.16553         2.38210
H         52.31957        47.05887         2.61471
O         51.63079        20.93159        -2.67101
H         50.74068        20.97504        -3.09365
O         43.92069        42.75232         2.77295
H         43.87151        41.91099         3.27679
O         43.96908        30.15468        -1.66395
H         44.03339        29.39879        -2.28563
O         27.34558        39.80613         3.13099
H         27.91238        40.40953         3.66588
O         35.51978        23.32775         2.25099
H         35.16939        22.50742         2.67605
O         34.02347        34.87425         2.49485
H         33.99395        35.74830         2.94462
O         43.60604        33.13659         2.60070
H         44.33063        33.40372         3.20694
O         42.44146        35.64852         3.01510
H         42.44491        34.67659         3.18214
O         46.08829        26.71446        -2.33290
H         46.73745        26.10044        -2.75293
O         24.83054        46.64156         2.50740
H         24.10990        46.03794         2.79231
O         41.65883        25.40551         2.19273
H         40.90929        25.93539         2.53731
O         50.37979        27.75370        -2.67114
H         49.61050        28.27208        -2.99192
O         49.86962        51.14236         1.05627
H         50.29699        50.60710         1.76660
O         51.11009        25.33245         1.11127
H         51.91500        25.70396         1.53109
O         57.59709        27.73720        -2.20696
H         57.57285        26.88180        -2.68526
O         57.55799        33.28978        -1.91133
H         57.52768        34.24505        -2.13198
O         42.83576        20.10815         2.52759
H         43.68192        19.65004         2.75276
O         35.31292        33.76681        -1.50078
H         34.42215        33.62523        -1.89594
O         35.64494        50.24334         2.80431
H         34.80513        49.96984         3.23151
O         48.05389        18.98578         1.92893
H         47.17289        19.17352         2.33454
O         45.70484        25.21494         1.86875
H         46.27059        24.52365         2.28746
O         36.29484        22.24705        -1.19239
H         35.40178        22.59142        -1.44141
O         36.44872        33.24249         1.96068
H         35.66472        33.66764         2.38737
O         57.77836        37.47236         2.20183
H         58.64760        37.05010         2.42977
O         45.32638        18.61152         2.28511
H         45.30544        17.64570         2.46211
O         30.28333        31.50725         1.73858
H         29.45925        31.94372         2.04578
O         52.74622        29.09975        -2.41923
H         51.96665        28.61484        -2.79441
O         34.31859        39.30525         3.24741
H         34.43081        40.22793         3.59142
H         23.00138        23.48464        -1.75248
H         20.90761        24.72975        -1.99181
H         20.78783        27.16449        -1.80218
H         20.93831        29.13071        -2.09367
H         20.87142        31.55994        -1.86665
H         21.03921        33.54587        -2.01015
H         21.26587        35.97093        -2.21819
H         21.75833        37.82216        -2.78780
H         22.18767        40.18879        -3.14988
H         22.53881        42.32154        -3.17659
H         22.35180        44.68822        -2.62845
H         21.29291        46.13671        -1.46622
H         23.23530        49.89070        -0.73348
H         21.28501        48.61875        -1.57148
H         24.62403        22.51092        -1.34425
H         24.62176        50.87336         0.09566
H         26.69672        21.30367        -0.97714
H         26.68838        52.10170         0.36581
H         30.38111        19.16329        -0.29018
H         28.28858        20.37246        -0.62775
H         30.41550        54.22463         1.09547
H         28.28614        53.02858         1.02005
H         32.18276        18.30623        -0.72874
H         32.07340        55.16035         0.54030
H         34.25688        17.09828        -0.28820
H         34.20150        56.27400         0.30894
H         37.84549        14.89381         0.46256
H         35.72712        16.08506         0.69569
H         37.93584        58.35309        -0.01717
H         35.87484        57.20860         0.56266
H         39.41410        14.03877        -0.20491
H         39.41652        59.20815        -0.85460
H         43.67470        14.13063        -0.69432
H         41.53747        12.89502        -0.71896
H         43.35078        58.98111        -2.52693
H         41.42633        60.30439        -1.75654
H         45.27176        15.17924        -0.88442
H         44.59470        57.87481        -3.43534
H         47.38657        16.40729        -0.71675
H         46.29381        56.39719        -4.48260
H         50.99723        18.17442        -0.90672
H         49.18126        17.07584         0.22467
H         51.03738        54.16610        -3.17131
H         48.97324        54.87703        -4.33620
H         52.57436        19.25431        -0.37930
H         52.58830        53.60053        -2.35472
H         54.62131        20.50590        -0.02211
H         54.68794        52.63065        -1.59948
H         58.42563        22.56090        -0.52608
H         56.31227        21.36376        -0.59573
H         58.14900        51.11472         0.79950
H         56.14791        52.12791        -0.30011
H         60.06224        23.48262        -0.11165
H         60.72089        49.61320         0.83695
H         62.18936        24.72078         0.02692
H         62.23713        27.18909        -0.13963
H         62.23968        29.08890        -0.77784
H         62.23392        31.52301        -0.65422
H         62.28003        33.38560        -0.18144
H         62.33929        35.73741         0.35949
H         62.20236        37.60146        -0.40594
H         62.11577        39.97332        -0.97510
H         62.02699        41.87110        -1.36538
H         62.03132        44.29139        -1.34804
H         62.07677        46.10707        -1.24814
H         62.46613        48.43295        -0.56147
