         732
 CSIRO Nanostructure Databank - Neutral Graphene Oxide Data Set
C         23.24463        24.64044         2.49897
C         22.01735        25.29160         2.40709
C         23.12133        27.35307         1.75408
C         21.95407        26.63241         2.00215
C         23.09944        28.74906         1.16406
C         21.81789        29.52614         1.32637
C         22.96801        31.70746         1.59819
C         21.76142        30.86215         1.41548
C         23.01537        33.09983         1.16757
C         21.96969        33.71076         0.48722
C         23.06287        35.92310         0.52023
C         21.95967        35.08616         0.21450
C         23.04642        37.32956         0.31314
C         21.92842        37.99410        -0.23149
C         23.08829        40.16022        -0.30176
C         21.92184        39.35456        -0.48128
C         23.08176        41.55432        -0.55892
C         21.91510        42.25870        -1.06725
C         22.91374        44.39960        -0.33065
C         21.84416        43.60801        -1.04513
C         22.92026        45.87735        -0.63751
C         21.72009        46.57311        -0.67385
C         22.89373        48.66735        -0.99940
C         21.70604        47.96615        -0.87446
C         25.79030        23.20815         2.20431
C         25.73605        24.63883         2.23553
C         24.44409        25.32746         2.24168
C         25.60735        27.46304         1.79458
C         24.39008        26.71833         1.92050
C         25.58274        28.85516         1.54266
C         24.34440        29.52704         1.50402
C         25.55544        31.72694         1.35771
C         24.32344        30.96728         1.68425
C         25.51158        33.08371         1.20630
C         24.25623        33.88665         1.53759
C         25.47321        36.00324         0.98089
C         24.28177        35.29592         0.97706
C         25.52609        37.42534         0.78553
C         24.20628        38.16606         0.81383
C         25.47745        40.25741         0.26059
C         24.28770        39.54183         0.18675
C         25.50960        41.64072        -0.08084
C         24.28150        42.30538        -0.37727
C         25.44730        44.45383        -0.59657
C         24.25300        43.72402        -0.48370
C         25.39010        45.86824        -0.79986
C         24.15700        46.57875        -0.78451
C         25.38641        48.74894        -0.99081
C         24.14383        48.00624        -0.94283
C         25.40527        50.16771        -0.94707
C         28.23236        23.23855         2.30834
C         26.98724        22.54217         2.23745
C         28.20593        24.69121         2.25217
C         26.92784        25.36030         2.21289
C         28.12051        27.56365         1.87739
C         26.87321        26.86424         2.35138
C         28.09263        28.89706         1.51605
C         26.82711        29.60784         1.44077
C         28.03980        31.71039         1.02637
C         26.80487        30.98193         1.23223
C         28.01950        33.09801         0.88876
C         26.71586        33.82820         0.70274
C         28.02872        36.00357         1.11850
C         26.73740        35.26139         1.19313
C         27.99815        37.46929         0.90646
C         26.72490        38.12975         0.80201
C         28.00386        40.32135         0.54746
C         26.69484        39.64095         0.90807
C         27.98328        41.71840         0.17759
C         26.73494        42.37743        -0.09725
C         27.93523        44.44928        -0.64459
C         26.71626        43.75554        -0.47440
C         27.93340        45.85225        -1.09804
C         26.61194        46.59709        -1.15773
C         27.85816        48.77013        -1.11377
C         26.63256        48.07002        -1.07537
C         27.84890        50.20356        -1.07675
C         26.59216        50.86429        -0.98963
C         30.74529        20.43917         2.45299
C         29.54213        21.12138         2.40875
C         30.70662        23.28087         2.66154
C         29.45621        22.53571         2.43224
C         30.69417        24.78495         2.41211
C         29.39474        25.42488         2.18655
C         30.63812        27.54705         1.62751
C         29.42257        26.92574         2.26806
C         30.57921        28.90113         1.24251
C         29.32753        29.60534         1.24845
C         30.49452        31.69201         0.67447
C         29.29387        30.99569         0.98682
C         30.45856        33.11489         0.54111
C         29.23784        33.82577         0.73366
C         30.45337        35.94539         0.62673
C         29.25736        35.25009         0.77949
C         30.47564        37.40979         0.92284
C         29.19532        38.17521         0.83201
C         30.48094        40.36213         0.77874
C         29.20082        39.61382         0.69173
C         30.47710        41.82532         0.34278
C         29.18629        42.43790        -0.02316
C         30.41713        44.49587        -0.69548
C         29.17248        43.79462        -0.43885
C         30.39999        45.94286        -0.92415
C         29.17068        46.64315        -0.97910
C         30.35594        48.77579        -1.10519
C         29.13303        48.05574        -1.08755
C         30.36899        50.25011        -1.42040
C         29.07073        50.95249        -1.10006
C         30.30592        53.06045        -0.94934
C         29.10111        52.34358        -0.96568
C         33.16334        18.96564         1.84146
C         33.18923        20.35562         2.14387
C         32.01651        21.07528         2.47426
C         33.27460        23.32448         2.26489
C         32.03318        22.55050         2.64163
C         33.07736        24.61895         1.48478
C         31.92321        25.46921         1.94935
C         33.06482        27.49015         1.06903
C         31.86748        26.81539         1.54802
C         33.02197        28.87488         0.75381
C         31.78093        29.58684         0.84539
C         32.92423        31.64764         0.13791
C         31.73740        30.97508         0.56063
C         32.81327        33.06428        -0.25988
C         31.63615        33.83889         0.20759
C         32.85378        36.00274        -0.08137
C         31.63892        35.23555         0.28530
C         33.03915        37.37576         0.49986
C         31.78484        38.12989         0.88665
C         33.05748        40.34877         0.36817
C         31.80345        39.63491         0.82463
C         32.93340        41.73588        -0.15616
C         31.72129        42.43958        -0.18368
C         32.83827        44.46116        -1.20256
C         31.62076        43.78786        -0.69163
C         32.88966        45.98180        -1.39680
C         31.59655        46.68145        -1.05351
C         32.88626        48.85898        -1.25753
C         31.57931        48.09178        -1.09713
C         32.84010        50.30697        -0.79408
C         31.59766        50.99694        -0.93991
C         32.87365        53.13160        -0.94098
C         31.54580        52.40106        -0.88432
C         32.83104        54.61678        -0.68715
C         35.52849        18.92220         1.18135
C         34.28613        18.27343         1.43663
C         35.61290        20.32392         1.35990
C         34.49616        21.02860         2.01034
C         35.64860        23.24055         1.32756
C         34.53992        22.56967         2.00224
C         35.56853        24.66339         1.09085
C         34.35715        25.38076         1.23880
C         35.50158        27.47691         0.58586
C         34.30734        26.77724         0.97464
C         35.45041        28.86877         0.26721
C         34.21385        29.56986         0.34464
C         35.36399        31.67442        -0.38596
C         34.15296        30.96890         0.01749
C         35.35103        33.06021        -0.67017
C         34.05992        33.78983        -0.70841
C         35.35633        35.99919        -0.68369
C         34.05428        35.29204        -0.62534
C         35.42751        37.36081        -0.51679
C         34.30574        38.10047         0.14157
C         35.40995        40.22984        -0.45122
C         34.27086        39.56935         0.00538
C         35.35206        41.65607        -0.64683
C         34.16027        42.35028        -0.57392
C         35.35620        44.55427        -0.77454
C         34.13914        43.75678        -1.04420
C         35.33303        45.90569        -0.52715
C         34.04301        46.63328        -0.63034
C         35.27854        48.85598        -0.31326
C         34.02430        48.12470        -0.57474
C         35.27177        50.25429        -0.24846
C         34.01612        50.96763        -0.42248
C         35.25413        53.19767        -0.15490
C         33.92646        52.44950        -0.06018
C         35.25476        54.55435        -0.30943
C         33.98760        55.26984        -0.47372
C         37.89368        16.07431         0.49092
C         36.71438        16.77822         0.70414
C         37.93387        18.89103         0.58697
C         36.71248        18.18484         0.80762
C         37.96430        20.32121         0.63448
C         36.78826        21.04265         1.02640
C         38.01737        23.15864         0.66575
C         36.81003        22.48476         1.02581
C         38.03074        24.62660         0.76556
C         36.76250        25.37410         0.76317
C         37.94619        27.45412         0.08858
C         36.74096        26.75938         0.50680
C         37.87844        28.85478        -0.22454
C         36.65008        29.56580        -0.13820
C         37.80109        31.64883        -0.86489
C         36.60531        30.96125        -0.45611
C         37.75247        33.05386        -1.18367
C         36.54395        33.75242        -1.03743
C         37.74294        36.00650        -1.54276
C         36.47720        35.22819        -1.27008
C         37.80141        37.43366        -1.21398
C         36.64658        38.10345        -0.82444
C         37.85934        40.26729        -0.94760
C         36.63325        39.53647        -0.75722
C         37.87457        41.67268        -0.84153
C         36.58527        42.39866        -1.09468
C         37.84524        44.50913        -0.21402
C         36.55816        43.77523        -0.49148
C         37.78364        45.97686        -0.18208
C         36.54688        46.62442        -0.21578
C         37.81683        48.86347         0.03121
C         36.46783        48.07854         0.03373
C         37.75019        50.33208        -0.12807
C         36.51714        50.97719        -0.08084
C         37.78636        53.18736         0.18690
C         36.46201        52.42973         0.34456
C         37.78839        54.65302        -0.09484
C         36.52589        55.34845        -0.54920
C         37.76836        57.42170        -0.06593
C         36.57690        56.77552        -0.04814
C         40.43609        14.63175         0.58253
C         40.38298        16.00040         0.24601
C         39.11979        16.73920         0.32247
C         40.33276        18.87755         0.00491
C         39.12468        18.16470         0.29020
C         40.35426        20.26644         0.03834
C         39.16959        21.01177         0.33425
C         40.35279        23.16225        -0.16973
C         39.18441        22.45588         0.31245
C         40.39697        24.54350        -0.22566
C         39.28876        25.35334         0.31604
C         40.33921        27.41723        -0.55173
C         39.15753        26.76023        -0.09052
C         40.31864        28.82576        -0.70710
C         39.07472        29.54516        -0.60655
C         40.28554        31.58580        -1.31678
C         39.02343        30.92116        -0.92590
C         40.30590        33.05964        -1.57948
C         38.98575        33.76617        -1.63536
C         40.31338        35.98264        -1.46218
C         39.03234        35.26410        -1.72084
C         40.31944        37.38168        -1.41618
C         39.04075        38.16131        -1.68305
C         40.28926        40.29850        -1.23516
C         39.09173        39.58871        -1.19730
C         40.33028        41.70368        -0.97970
C         39.09611        42.39839        -0.77802
C         40.30421        44.53458        -0.48828
C         39.10325        43.80746        -0.51675
C         40.27816        45.97422        -0.33204
C         39.03829        46.69641        -0.22338
C         40.26668        48.82303        -0.55710
C         39.02821        48.10131        -0.25050
C         40.24277        50.34172        -0.53013
C         38.99283        51.06686        -0.22613
C         40.24910        53.19117        -0.37569
C         39.03518        52.45265        -0.11869
C         40.26897        54.59966        -0.51297
C         39.05213        55.36372        -0.44388
C         40.23554        57.53140        -0.73525
C         39.01108        56.75423        -0.41765
C         40.34868        58.98081        -0.54128
C         42.80255        14.57576         0.10988
C         41.63760        13.93057         0.51559
C         42.78570        15.94653        -0.22415
C         41.57299        16.66771        -0.12141
C         42.79763        18.86168        -0.52259
C         41.49300        18.10411        -0.58587
C         42.81957        20.22298        -0.59036
C         41.65425        21.03436        -0.07152
C         42.76958        23.10326        -0.96560
C         41.46186        22.35053        -0.81235
C         42.71917        24.51381        -1.07988
C         41.55116        25.24299        -0.75220
C         42.77001        27.38057        -1.03965
C         41.54238        26.67268        -0.80048
C         42.78246        28.81144        -0.97283
C         41.55895        29.52274        -0.89092
C         42.76928        31.66007        -1.11638
C         41.56906        30.93224        -1.02777
C         42.76082        33.11222        -1.19373
C         41.55529        33.82050        -1.34004
C         42.75792        35.96703        -1.09126
C         41.53557        35.25327        -1.30592
C         42.76536        37.40764        -1.11537
C         41.54542        38.08805        -1.31264
C         42.84899        40.30133        -1.39907
C         41.54362        39.55582        -1.50714
C         42.83145        41.75801        -1.13711
C         41.56400        42.44717        -0.98065
C         42.77430        44.62342        -0.77127
C         41.53199        43.83186        -0.72498
C         42.76435        45.91698         0.04737
C         41.50941        46.71014        -0.26260
C         42.77003        48.85156        -0.11681
C         41.52585        48.08640        -0.34807
C         42.76322        50.35360        -0.14133
C         41.50401        51.08789        -0.37753
C         42.78771        53.18241        -0.71940
C         41.49494        52.45702        -0.41970
C         42.73288        54.63260        -0.35722
C         41.54365        55.29878        -0.51574
C         42.83331        57.50468        -0.68796
C         41.55600        56.76080        -0.75871
C         42.78955        58.89360        -0.78755
C         41.56191        59.60636        -0.67149
C         45.15186        15.95319        -1.00856
C         44.01573        16.61861        -0.64186
C         45.12552        18.73806        -1.41862
C         44.11304        18.11563        -0.46774
C         45.19262        20.23773        -1.24785
C         44.04249        20.95378        -0.96446
C         45.18777        23.12777        -1.49945
C         43.97901        22.39556        -1.13889
C         45.19023        24.49503        -1.58751
C         43.88783        25.24072        -1.68479
C         45.20586        27.38604        -1.37719
C         43.96603        26.69247        -1.31460
C         45.23163        28.81049        -1.22016
C         44.00761        29.52860        -1.09351
C         45.24885        31.66086        -1.20144
C         44.00919        30.95437        -1.09400
C         45.25800        33.11183        -1.10563
C         43.99899        33.82430        -1.03945
C         45.19078        35.93640        -0.51166
C         43.96628        35.23049        -0.91594
C         45.19753        37.42968        -0.47070
C         43.99536        38.15633        -0.92085
C         45.31012        40.27565        -0.92713
C         44.06712        39.54254        -1.04519
C         45.31374        41.70724        -1.01069
C         44.04933        42.41617        -1.05917
C         45.34908        44.53960        -0.69983
C         44.07210        43.88072        -0.97810
C         45.34236        45.98680        -0.40780
C         44.06916        46.70417        -0.09024
C         45.26907        48.89012        -0.31484
C         44.05683        48.16558        -0.26627
C         45.27513        50.33229        -0.21685
C         44.05360        51.07339        -0.25325
C         45.27592        53.20393        -0.17199
C         44.04916        52.46291        -0.31403
C         45.25415        54.59744        -0.01679
C         43.96822        55.38270         0.06212
C         45.30948        57.20527        -1.01734
C         44.04619        56.75125        -0.59327
C         46.39405        16.64781        -1.24083
C         47.70765        18.74583        -1.51061
C         46.45535        18.01081        -1.34837
C         47.70869        20.15884        -1.64524
C         46.41639        20.88372        -1.75169
C         47.71336        23.08355        -1.86772
C         46.42072        22.37987        -1.87817
C         47.71312        24.50037        -1.77893
C         46.42134        25.25035        -2.02879
C         47.64757        27.38853        -1.43540
C         46.43426        26.69063        -1.55285
C         47.69364        28.79949        -1.34248
C         46.46130        29.52144        -1.30542
C         47.70284        31.66406        -1.71564
C         46.44630        30.94589        -1.32312
C         47.72868        33.11452        -1.31289
C         46.48465        33.79437        -1.09970
C         47.74099        36.00075        -0.90018
C         46.52558        35.20382        -0.66736
C         47.76717        37.37391        -0.76795
C         46.53811        38.15482        -0.49545
C         47.78122        40.28113        -0.91362
C         46.54686        39.59270        -0.82656
C         47.79081        41.71448        -0.93421
C         46.54049        42.41767        -0.95718
C         47.79781        44.61203        -0.78463
C         46.54494        43.86576        -0.84140
C         47.79264        46.00655        -0.75391
C         46.50214        46.76850        -0.96584
C         47.73302        48.89119        -0.38371
C         46.51273        48.20052        -0.48549
C         47.73203        50.29286        -0.16661
C         46.51590        51.03666        -0.16275
C         47.74089        53.20726         0.00611
C         46.51820        52.47251        -0.09102
C         47.76740        54.58935         0.14898
C         46.50059        55.39136         0.25801
C         46.47621        56.52349        -0.73071
C         50.13724        18.76702        -1.68716
C         48.94384        18.07198        -1.51516
C         50.15257        20.16287        -1.77977
C         48.92637        20.87275        -1.72648
C         50.14950        23.02939        -1.66469
C         48.94213        22.34663        -1.77431
C         50.20661        24.50530        -1.92257
C         48.90464        25.19117        -1.61813
C         50.20487        27.34711        -1.12999
C         48.89648        26.61543        -1.28032
C         50.20639        28.81535        -1.25608
C         48.96434        29.51502        -1.31518
C         50.19525        31.64145        -1.36412
C         48.97241        30.92150        -1.38830
C         50.19408        33.08058        -1.38802
C         48.93936        33.79666        -1.33070
C         50.21625        35.98059        -1.28122
C         48.90968        35.29393        -1.54271
C         50.21725        37.40096        -1.15176
C         48.99218        38.12163        -0.97734
C         50.27101        40.24821        -0.93066
C         49.02059        39.53774        -0.94328
C         50.26024        41.68190        -0.81390
C         49.02638        42.41636        -0.84918
C         50.24732        44.56028        -0.70672
C         49.05442        43.86964        -0.77178
C         50.31431        46.06349        -0.83796
C         48.99674        46.76785        -0.64482
C         50.24369        48.85962        -0.25651
C         48.98931        48.14705        -0.46189
C         50.26707        50.23151        -0.16065
C         49.01236        50.98608         0.02722
C         50.30726        53.22910        -0.27771
C         49.03409        52.48006         0.12145
C         50.22881        54.66011         0.20368
C         49.02725        55.27501         0.33838
C         52.71610        20.20447        -1.77773
C         51.42997        20.93654        -2.07503
C         52.69086        23.05234        -1.47010
C         51.40197        22.26820        -1.31948
C         52.68388        24.48066        -1.41261
C         51.45785        25.20972        -1.44294
C         52.69400        27.32670        -1.23553
C         51.46958        26.59928        -1.30975
C         52.68923        28.76186        -1.24764
C         51.43710        29.50022        -1.30049
C         52.65902        31.66375        -1.41011
C         51.43580        30.93451        -1.33778
C         52.66550        33.07137        -1.44185
C         51.42584        33.77990        -1.38762
C         52.63080        35.95497        -1.40666
C         51.41233        35.23767        -1.32853
C         52.55804        37.33186        -1.59327
C         51.44193        38.12636        -1.25798
C         52.74059        40.25143        -0.67472
C         51.51714        39.55444        -1.01836
C         52.68233        41.64293        -0.35764
C         51.48475        42.35658        -0.60378
C         52.50316        44.41454         0.34880
C         51.57374        43.85118        -0.71086
C         52.43175        45.90339         0.64272
C         51.40320        46.71150        -0.01207
C         52.54293        48.74629         0.75377
C         51.43886        48.08610         0.08636
C         52.58318        50.16067         0.83222
C         51.53861        50.93329         0.12775
C         52.55796        53.02538         1.09228
C         51.56673        52.44850         0.17015
C         53.84958        20.88399        -1.51715
C         55.14758        23.04499        -1.38196
C         53.89172        22.34331        -1.46547
C         55.15247        24.46555        -1.26686
C         53.91929        25.18783        -1.29692
C         55.16336        27.32472        -1.13105
C         53.92524        26.61437        -1.23785
C         55.16321        28.75450        -1.14607
C         53.92026        29.44844        -1.28279
C         55.24250        31.65008        -1.23250
C         53.91750        30.89982        -1.50916
C         55.16233        33.06481        -0.88573
C         53.97003        33.80396        -1.38870
C         55.01532        35.95433        -0.42825
C         53.97252        35.30069        -1.33767
C         55.19118        37.43412        -0.28579
C         54.33572        38.32620        -0.93620
C         55.01341        40.18204         0.39515
C         54.00444        39.59514        -0.42009
C         54.95994        41.58642         0.61627
C         53.84376        42.32206         0.20877
C         54.80927        44.36922         1.27978
C         53.77382        43.71929         0.57676
C         54.74167        45.78974         1.58445
C         53.62378        46.56273         1.18147
C         54.73761        48.64487         1.89146
C         53.63097        47.98073         1.27477
C         54.74059        50.06899         2.01307
C         53.63928        50.83516         1.47273
C         53.54864        52.26785         1.63936
C         57.58088        23.04589        -1.19987
C         56.39218        22.36529        -1.37737
C         57.61165        24.45135        -1.02829
C         56.38668        25.16927        -1.09713
C         57.60070        27.29776        -0.74473
C         56.38297        26.60042        -1.00104
C         57.59394        28.71819        -0.64657
C         56.39479        29.45799        -0.91216
C         57.51551        31.58690        -0.28608
C         56.40085        30.87908        -0.78637
C         57.44102        32.96495         0.05099
C         56.21669        33.67475        -0.23442
C         57.22782        35.72602         0.88422
C         56.09231        35.08906         0.18537
C         57.00430        37.08327         1.40069
C         56.05165        37.97515         0.70629
C         57.13115        40.01442         1.69691
C         56.07034        39.37353         0.92109
C         57.16779        41.41308         1.82784
C         56.21780        42.28216         1.04917
C         57.01794        44.24672         2.37243
C         55.99302        43.64666         1.64318
C         56.98097        45.66718         2.63553
C         55.85547        46.44043         2.18480
C         56.93943        48.53293         2.97177
C         55.84132        47.87056         2.36975
C         56.93022        49.93051         3.07717
C         55.85749        50.68711         2.61746
C         60.07890        24.47816        -0.63303
C         58.85180        25.15735        -0.75757
C         60.02231        27.26634        -0.21676
C         58.82601        26.57395        -0.57633
C         59.97178        28.69387         0.01674
C         58.79645        29.40022        -0.28211
C         59.96303        31.57082         0.51249
C         58.79168        30.86620        -0.19118
C         59.70744        32.92042         1.06660
C         58.52259        33.62061         0.75318
C         59.44254        35.62236         1.97290
C         58.36709        34.99524         1.22018
C         59.40051        36.99686         2.32466
C         58.16221        37.76401         2.16037
C         59.32934        39.85801         2.80104
C         58.20433        39.23609         2.22119
C         59.30293        41.27562         3.04695
C         58.20652        42.04936         2.56543
C         59.16712        44.07146         3.59178
C         58.15664        43.46373         2.82268
C         59.08225        45.49123         3.91552
C         58.04094        46.27704         3.32295
C         58.80720        48.23864         4.66279
C         58.18309        47.77774         3.36984
C         61.25121        25.16805        -0.32294
C         61.22753        26.54192        -0.10312
C         61.04517        29.36626         0.71014
C         60.99882        30.68260         1.05187
C         60.69877        33.53000         1.87874
C         60.57940        34.83196         2.30504
C         60.52637        37.70614         2.83542
C         60.47301        39.05051         3.12184
C         60.33856        41.93621         3.76428
C         60.26493        43.28269         4.03867
C         59.91995        46.08684         4.86439
C         59.69520        47.42882         5.30119
O         59.86449        31.52189        -0.94725
O         37.87599        54.17843         1.28806
O         40.20931        49.60561        -1.82721
O         33.12124        33.26732        -1.69505
O         33.61828        47.30996         0.59136
O         42.68381        49.63270         1.15946
O         34.95470        21.79763         3.16728
O         57.00171        37.18794         2.85661
O         30.66918        24.20215         3.78508
O         30.46910        41.43844         1.76242
O         54.36708        34.64014        -2.56836
O         40.83749        57.07306        -2.00258
O         42.26978        39.96468        -2.71715
O         32.90126        23.18591         3.64580
O         54.82698        35.36538         0.91219
O         37.06071        43.86022         0.86469
O         34.07885        37.52250         1.50478
O         45.03465        46.30836         0.98878
O         33.47281        43.80591        -2.36712
O         27.45079        35.55293         2.41715
O         39.01348        25.13498         1.74011
O         37.13731        48.45900         1.26659
O         49.48821        26.85953         0.07332
O         38.95259        34.46090        -2.93827
O         32.70550        40.21177         1.80409
O         36.78887        35.69052        -2.62574
O         52.14161        51.72822        -0.97589
O         53.70545        37.93661        -2.11568
O         51.84056        44.87027         1.55504
O         31.23540        37.67196         2.16623
O         43.38475        44.63270        -2.08780
O         45.87181        35.36236         0.64014
O         40.35046        32.11198        -2.70486
O         54.79201        31.33047        -2.59307
O         49.11120        51.71751         1.35877
O         46.21418        21.52932        -3.08003
O         33.09224        35.95182        -1.53262
O         27.24691        46.05754        -2.38363
O         23.61304        31.44264         2.89869
O         45.81123        37.92500         0.76008
O         46.44950        55.95806         1.63749
H         46.73794        55.24965         2.25251
O         33.19380        48.93053        -2.67297
H         32.39125        49.28245        -3.12302
O         43.76769        55.68961         1.48853
H         44.64689        56.01691         1.81806
O         52.25267        44.13180        -1.99983
H         51.86390        43.53311        -2.67346
O         51.41367        21.25008        -3.49289
H         51.44743        20.40902        -3.99366
O         26.53100        33.96478        -0.75398
H         26.55921        33.06599        -1.14557
O         56.93592        42.55472        -0.22692
H         56.35810        43.13780        -0.76490
O         38.90615        38.25355        -3.14013
H         38.72423        37.35237        -3.48610
O         26.50170        39.90531         2.35255
H         27.30930        39.59858         2.82031
O         22.59130        44.31601         1.10684
H         22.60404        43.36589         1.35280
O         43.60559        25.25082        -3.16496
H         43.50555        24.31179        -3.43730
O         30.49703        50.28635        -2.90571
H         30.38532        51.22257        -3.17871
O         33.11166        46.24877        -2.79841
H         33.41527        45.40428        -3.21164
O         46.34164        25.35016        -3.49200
H         45.39839        25.56095        -3.70851
O         32.66285        24.10510         0.14790
H         32.59861        24.87708        -0.45528
O         46.29616        46.82524        -2.41355
H         47.11030        47.18945        -2.82116
O         24.26261        34.06494         2.98564
H         24.11592        33.17066         3.38266
O         36.21332        52.31640         1.79187
H         36.65750        53.09585         2.20653
O         50.31990        24.63945        -3.40609
H         49.59281        24.11198        -3.80417
O         42.03441        21.41003         1.28331
H         42.23493        20.59333         1.78593
O         33.34468        52.96968        -2.31552
H         32.72398        53.44293        -2.90735
O         50.30734        53.29529        -1.72469
H         51.03520        52.70313        -2.03764
O         50.68209        46.33064        -2.24230
H         51.45541        45.74417        -2.44063
O         36.50700        42.59774        -2.53951
H         36.53295        41.71844        -2.97283
O         33.49358        52.52160         1.31731
H         34.27839        52.28077         1.86897
O         44.62068        18.55497        -2.77253
H         45.17752        19.09108        -3.37670
O         51.30156        21.92221         0.09687
H         51.28695        22.75489         0.61375
O         48.67438        35.44328        -3.00558
H         49.51403        35.21849        -3.46123
O         36.65265        55.40599        -2.00665
H         35.83397        55.80921        -2.36390
O         59.17833        48.11203         2.32151
H         59.99971        47.62320         2.54454
O         47.65514        31.70011        -3.19886
H         48.35956        32.31369        -3.49977
O         42.63056        45.49466         1.42656
H         43.50209        45.64277         1.86447
O         23.94611        38.42582         2.23636
H         24.71897        38.94257         2.57330
O         29.55851        27.20237         3.73772
H         29.84128        28.13803         3.83075
O         42.86188        53.18379        -2.20185
H         42.06941        53.65532        -2.53919
O         44.62666        18.33174         0.88487
H         44.11356        17.76515         1.49808
O         41.01832        22.00445        -2.15964
H         40.85920        22.83883        -2.64893
O         41.19004        18.01302        -2.02292
H         41.23937        18.91970        -2.39549
O         26.81345        27.11543         3.80623
H         27.73743        26.99423         4.14560
O         23.19307        28.53277        -0.30330
H         23.93437        27.90859        -0.45862
H         23.26288        23.58206         2.79105
H         21.08963        24.74513         2.62522
H         20.97026        27.10860         1.89512
H         20.87646        28.96847         1.21331
H         20.78119        31.36338         1.43642
H         21.07794        33.12087         0.22693
H         21.04779        35.51483        -0.22127
H         21.02402        37.42120        -0.48008
H         21.00532        39.81201        -0.87677
H         21.09196        41.67880        -1.50884
H         20.96002        44.12314        -1.44788
H         20.76934        46.03978        -0.53739
H         22.85059        49.75433        -1.14682
H         20.74693        48.50042        -0.91632
H         24.85968        22.62710         2.15928
H         24.46714        50.73256        -0.87247
H         26.97616        21.44447         2.23655
H         26.55105        51.96074        -0.95911
H         30.69769        19.34364         2.40344
H         28.62490        20.52304         2.32946
H         30.25579        54.15613        -0.89429
H         28.16914        52.91299        -0.84938
H         32.23225        18.39782         1.96615
H         31.89739        55.18448        -0.81000
H         34.19621        17.19111         1.27739
H         33.99191        56.36688        -0.39043
H         37.84941        14.97760         0.45953
H         35.78282        16.21155         0.83178
H         37.80846        58.48662         0.20703
H         35.66158        57.31450         0.23546
H         39.52988        14.10307         0.90593
H         39.45267        59.57234        -0.30678
H         43.74245        14.00959         0.06109
H         41.66540        12.86502         0.78217
H         43.72828        59.46534        -0.81036
H         41.60898        60.70231        -0.59423
H         45.16183        14.85633        -1.08451
H         45.36635        58.10287        -1.65213
H         47.30253        16.03214        -1.30697
H         47.40219        56.78243        -1.26628
H         51.07305        18.19365        -1.72892
H         48.98085        16.97957        -1.41358
H         51.15325        55.24948         0.28976
H         48.98782        56.34347         0.59838
H         52.75740        19.10822        -1.85691
H         52.48289        54.08822         1.36274
H         54.77949        20.32107        -1.35559
H         54.27665        52.76625         2.29473
H         58.51491        22.46902        -1.18691
H         56.42759        21.27534        -1.50271
H         57.79919        50.44780         3.50668
H         55.90445        51.78020         2.70955
H         60.13198        23.39142        -0.77845
H         58.64941        49.27050         5.00698
H         62.19951        24.61890        -0.24222
H         62.16478        27.05999         0.13908
H         61.87300        28.75801         1.10043
H         61.75833        31.08282         1.73753
H         61.60393        32.96876         2.14458
H         61.38509        35.26120         2.91422
H         61.46735        37.17191         3.02396
H         61.36737        39.52834         3.54302
H         61.20213        41.36728         4.13340
H         61.07739        43.75086         4.61029
H         60.68659        45.49602         5.38221
H         60.23872        47.79018         6.18633
