         620
 CSIRO Nanostructure Databank - Neutral Graphene Oxide Data Set
C         23.36171        27.60679         1.33644
C         23.28816        28.95316         0.98414
C         22.98953        31.69075        -0.01659
C         22.99867        33.01932         0.07362
C         22.98776        35.93413         0.27249
C         22.95649        37.33032         0.49210
C         22.92201        40.28835         1.18881
C         22.96876        41.62277         1.44158
C         22.98234        44.58097         1.49906
C         22.97875        45.93979         1.29449
C         25.57988        24.64626         0.74479
C         24.51905        25.38252         1.21192
C         25.42012        27.33644         0.04921
C         24.41500        26.77097         0.88464
C         25.11531        28.60288        -0.49156
C         24.16770        29.49037         0.01567
C         25.48719        31.68420        -0.37948
C         24.14821        30.91398        -0.58485
C         25.48077        33.06999        -0.17222
C         24.17430        33.81955        -0.41951
C         25.45033        36.02068        -0.08180
C         24.16718        35.24799         0.07401
C         25.38068        37.39212         0.53758
C         24.15258        38.05583         0.65736
C         25.42528        40.29616         0.94332
C         24.12229        39.54707         0.78247
C         25.40576        41.69063         1.39752
C         24.20553        42.38274         1.48475
C         25.41942        44.54768         1.45020
C         24.20343        43.84178         1.54601
C         25.43356        45.94406         1.16622
C         24.19563        46.64660         1.07187
C         25.39357        48.65715         0.42766
C         24.20349        48.02165         0.73436
C         27.91652        23.09214        -0.19426
C         27.90816        24.51394        -0.14293
C         26.70655        25.26398         0.10957
C         27.92176        27.35853        -0.40909
C         26.67954        26.65732        -0.17413
C         27.99203        28.81207        -0.44250
C         26.91662        29.63607        -0.79529
C         27.94642        31.65440         0.01621
C         26.76320        30.99811        -0.39168
C         27.93677        33.08264         0.26942
C         26.67972        33.80539         0.12788
C         27.86655        35.92343         0.60676
C         26.68773        35.22550         0.28663
C         27.91155        37.33645         0.77612
C         26.62944        38.03595         0.96209
C         27.96077        40.22852         1.18354
C         26.66636        39.51469         1.22244
C         27.96877        41.62334         1.34278
C         26.70129        42.32836         1.65395
C         27.96409        44.53051         1.29453
C         26.70441        43.85769         1.64073
C         27.94255        45.92176         1.02920
C         26.66312        46.63386         0.92385
C         27.92669        48.59105         0.01300
C         26.62851        47.97524         0.50803
C         27.93101        50.08953        -0.15186
C         30.34394        23.06622        -0.45889
C         29.08702        22.39709        -0.39045
C         30.36613        24.48357        -0.37449
C         29.13728        25.21083        -0.29484
C         30.41334        27.32586        -0.19569
C         29.14684        26.64337        -0.30538
C         30.42103        28.75997        -0.03969
C         29.20068        29.48919        -0.09646
C         30.39590        31.57441         0.31040
C         29.16927        30.90661         0.08425
C         30.43020        33.02633         0.69978
C         29.11807        33.74688         0.55904
C         30.36963        35.96887         0.57417
C         29.12632        35.19111         0.96888
C         30.37647        37.34774         0.65844
C         29.12679        38.05459         0.87393
C         30.40932        40.19162         1.04816
C         29.16225        39.48778         1.02666
C         30.40939        41.60409         1.24240
C         29.19876        42.33985         1.34649
C         30.39228        44.53002         1.14749
C         29.19031        43.80640         1.31277
C         30.39776        45.94927         0.99861
C         29.15397        46.63032         0.92164
C         30.38377        48.81923         0.57045
C         29.08010        48.13965         0.90958
C         30.37240        50.13147         0.16823
C         29.08725        50.77591        -0.11907
C         32.79834        20.25134        -0.83738
C         31.60820        20.93605        -0.76761
C         32.82195        23.04173        -0.47794
C         31.58263        22.34424        -0.58049
C         32.82488        24.45190        -0.29134
C         31.62216        25.17709        -0.29542
C         32.89848        27.30640        -0.02743
C         31.63000        26.61560        -0.15589
C         32.91425        28.75746         0.07510
C         31.63905        29.46058         0.08608
C         32.86582        31.60162         0.09780
C         31.59484        30.86605         0.24738
C         32.87057        33.07014        -0.10026
C         31.55887        33.78600         0.01032
C         32.87421        35.98407         0.12203
C         31.57871        35.27071         0.12207
C         32.87132        37.37366         0.30855
C         31.62687        38.08773         0.56047
C         32.94411        40.14227         0.93808
C         31.63645        39.45502         0.83588
C         32.98665        41.62592         1.18597
C         31.68506        42.33522         1.41389
C         32.92251        44.54649         0.95499
C         31.67908        43.84219         1.31265
C         32.88185        45.96908         0.87426
C         31.64269        46.66041         0.94835
C         32.89419        48.83507         0.61052
C         31.63612        48.16399         1.09101
C         32.86611        50.21325         0.25594
C         31.61802        50.88053         0.04027
C         32.82362        52.92827        -0.50118
C         31.63184        52.23581        -0.33153
C         35.31975        18.77911        -0.88533
C         35.29639        20.18517        -0.79743
C         34.04919        20.92235        -0.72836
C         35.32575        23.03602        -0.51743
C         34.06468        22.32232        -0.55501
C         35.35890        24.43161        -0.31489
C         34.10176        25.11603         0.15275
C         35.38170        27.27776         0.06715
C         34.10934        26.60967        -0.01449
C         35.42266        28.73116         0.48192
C         34.10644        29.43077         0.26501
C         35.39253        31.66689         0.23982
C         34.12100        30.88976         0.43574
C         35.34536        33.13058        -0.02987
C         34.13851        33.82974         0.01025
C         35.34343        35.96132        -0.07311
C         34.10467        35.25832        -0.00035
C         35.33851        37.38497        -0.01166
C         34.12128        38.08844         0.21928
C         35.34212        40.23023         0.20678
C         34.15074        39.49207         0.39794
C         35.34346        41.69256         0.34944
C         34.17130        42.38946         0.74750
C         35.34567        44.55304         0.54452
C         34.13186        43.82216         0.75040
C         35.33796        45.98385         0.60600
C         34.11737        46.69542         0.73450
C         35.35009        48.84406         0.46858
C         34.11448        48.12928         0.61624
C         35.34852        50.25642         0.25541
C         34.09395        50.92593         0.06629
C         35.31839        53.00996        -0.49416
C         34.07190        52.29505        -0.31609
C         35.33410        54.34031        -0.97160
C         37.75803        18.73193        -0.87811
C         36.51573        18.07384        -0.91586
C         37.76211        20.16243        -0.83712
C         36.53473        20.88991        -0.77492
C         37.78792        23.03508        -0.67799
C         36.55120        22.32137        -0.67595
C         37.80532        24.45413        -0.54116
C         36.57854        25.15117        -0.33654
C         37.87642        27.32202         0.10853
C         36.56990        26.58573        -0.10310
C         37.82239        28.78633        -0.30652
C         36.60144        29.50716        -0.09916
C         37.70135        31.65953        -0.71803
C         36.57349        30.89425        -0.17202
C         37.77542        33.12082        -0.52131
C         36.57478        33.83236        -0.24104
C         37.80692        35.96206        -0.43131
C         36.57162        35.25493        -0.25155
C         37.79878        37.39030        -0.37078
C         36.56402        38.10264        -0.15258
C         37.74973        40.23853        -0.50618
C         36.52792        39.51969        -0.12584
C         37.74740        41.76611        -0.38918
C         36.52763        42.43261         0.10345
C         37.78555        44.56814         0.17186
C         36.55519        43.84402         0.28399
C         37.76979        45.96742         0.34403
C         36.57503        46.69757         0.52885
C         37.79934        48.88514         0.52564
C         36.59071        48.14444         0.53786
C         37.82030        50.29688         0.34360
C         36.57096        50.98267         0.17331
C         37.76900        53.12440        -0.24198
C         36.55793        52.38326        -0.17343
C         37.75687        54.45272        -0.71687
C         36.52052        55.02743        -1.11217
C         40.23447        15.86154        -0.69006
C         39.03678        16.55394        -0.77621
C         40.23542        18.66569        -0.74992
C         39.00616        17.97085        -0.81543
C         40.23737        20.12405        -1.02346
C         38.98960        20.89471        -0.89089
C         40.27200        23.02964        -0.83938
C         39.01513        22.29568        -0.80818
C         40.25547        24.47182        -0.83263
C         39.06290        25.18153        -0.62404
C         40.25700        27.35289        -0.61206
C         39.08535        26.61410        -0.45915
C         40.27180        28.78802        -0.56903
C         39.01260        29.46959        -0.56362
C         40.26959        31.67300        -0.90271
C         39.01431        30.89768        -0.90445
C         40.21804        33.06565        -0.96429
C         38.99226        33.80303        -0.74630
C         40.26691        35.96016        -0.76101
C         39.01828        35.24163        -0.66132
C         40.26457        37.38806        -0.63062
C         39.03494        38.10061        -0.47593
C         40.24076        40.25413        -0.54246
C         39.03525        39.52672        -0.48534
C         40.23606        41.70225        -0.45608
C         39.04815        42.43450        -0.27024
C         40.23815        44.56607        -0.13421
C         39.04658        43.86557        -0.04618
C         40.24858        46.07198        -0.20362
C         39.04996        46.68329         0.46662
C         40.35130        48.91895         0.45540
C         39.07744        48.17951         0.64878
C         40.32225        50.36777         0.39665
C         39.05841        51.01596         0.30674
C         40.30646        53.15918        -0.14309
C         39.02711        52.52216         0.35097
C         40.24754        54.59377        -0.44154
C         38.98613        55.22426        -0.83407
C         40.19718        57.10603        -1.85384
C         39.01556        56.51219        -1.36734
C         42.72207        15.86832        -0.41830
C         41.46228        16.55384        -0.56699
C         42.69768        18.69088        -0.24204
C         41.44906        17.96609        -0.58800
C         42.70425        20.18739        -0.35833
C         41.52834        20.88548        -0.96950
C         42.77248        23.05235        -1.02694
C         41.48481        22.35424        -0.87293
C         42.81853        24.50982        -0.91368
C         41.52108        25.19342        -1.07224
C         42.78882        27.40342        -0.69834
C         41.52172        26.69747        -0.98191
C         42.73920        28.78840        -0.59292
C         41.49054        29.51012        -0.69232
C         42.74901        31.63800        -0.96336
C         41.51203        30.93837        -0.84043
C         42.73801        33.06598        -1.37054
C         41.41465        33.83864        -1.47431
C         42.72666        35.98095        -0.97733
C         41.48920        35.27420        -0.97736
C         42.73041        37.41409        -0.84612
C         41.49249        38.11397        -0.71338
C         42.71698        40.25326        -0.66379
C         41.48174        39.54184        -0.63014
C         42.70387        41.68673        -0.53906
C         41.50454        42.38571        -0.47258
C         42.74461        44.63506        -0.53157
C         41.47371        43.86418        -0.49057
C         42.79612        46.02705         0.02265
C         41.51485        46.73154         0.31230
C         42.83247        48.87802         0.56582
C         41.52996        48.21178         0.40431
C         42.83554        50.44063         0.52327
C         41.54191        51.09955         0.30535
C         42.79595        53.13636        -0.43697
C         41.53356        52.49514        -0.06326
C         42.76074        54.40798        -1.07870
C         41.55921        55.24426        -0.97998
C         42.54056        56.83688        -2.60387
C         41.41928        56.43230        -1.82523
C         43.91224        16.53745        -0.28764
C         45.22159        18.66117        -0.18739
C         43.99469        17.97011        -0.21974
C         45.28888        20.14465        -0.15371
C         44.00408        20.91648        -0.29699
C         45.30560        23.04568        -0.62299
C         44.06431        22.28972        -0.86588
C         45.25268        24.43561        -0.56724
C         44.01496        25.18679        -0.71582
C         45.23216        27.34615        -0.51026
C         44.03334        26.65795        -0.62476
C         45.28813        28.80783        -0.36028
C         43.97018        29.56842        -0.37927
C         45.24765        31.66189        -0.79702
C         43.98198        30.99509        -0.74053
C         45.27275        33.10455        -0.87452
C         44.02987        33.82899        -1.21431
C         45.20058        35.99549        -0.89634
C         43.98289        35.29658        -1.04332
C         45.21875        37.42894        -0.91712
C         43.96085        38.14098        -0.91262
C         45.18331        40.31497        -1.11049
C         43.93830        39.55858        -0.85410
C         45.26269        41.72917        -0.77115
C         44.00465        42.38870        -0.39481
C         45.26235        44.60129        -0.75676
C         44.02279        43.88025        -0.36778
C         45.23930        46.11930        -0.63025
C         44.02786        46.81436        -0.15615
C         45.29898        48.89394         0.07208
C         44.06057        48.15666         0.15446
C         45.30087        50.31687         0.26993
C         44.11012        51.13000         0.21752
C         45.24267        53.22608        -0.69226
C         44.06359        52.48346        -0.25038
C         45.15144        54.30457        -1.62271
C         43.86476        54.92627        -1.80436
C         43.71636        56.12233        -2.57504
C         47.67090        18.68956        -0.36020
C         46.48498        17.99688        -0.24555
C         47.73063        20.10887        -0.51729
C         46.54935        20.85880        -0.48238
C         47.76289        23.02408        -0.60656
C         46.54089        22.29858        -0.55187
C         47.77895        24.42538        -0.48728
C         46.51247        25.14304        -0.28237
C         47.78062        27.36170        -0.63245
C         46.52035        26.65670        -0.32214
C         47.74563        28.76810        -0.85898
C         46.54086        29.52288        -0.70498
C         47.69610        31.73906        -1.22887
C         46.47952        30.93263        -0.80127
C         47.71757        33.13086        -0.65495
C         46.45397        33.83502        -0.71319
C         47.64107        35.98679        -0.53657
C         46.44271        35.28228        -0.72826
C         47.68107        37.41329        -0.63214
C         46.46245        38.10646        -0.87792
C         47.77348        40.30008        -0.92101
C         46.52844        39.54470        -1.14893
C         47.73306        41.69556        -0.88992
C         46.48543        42.42068        -0.77260
C         47.72712        44.59281        -0.53604
C         46.53145        43.86538        -0.66571
C         47.69492        46.03175        -0.39186
C         46.52420        46.77874        -0.40073
C         47.75824        48.90738        -0.28283
C         46.51873        48.20175        -0.15158
C         47.75601        50.32208        -0.13878
C         46.58940        50.90544         0.35683
C         47.73527        53.32168        -0.88953
C         46.54828        52.93587        -0.24620
C         47.59847        54.29582        -1.90506
C         46.34438        54.81443        -2.20351
C         50.28999        20.15072        -0.31075
C         49.03242        20.78401        -0.73719
C         50.28132        23.03826        -0.45289
C         49.03975        22.31306        -0.78385
C         50.25194        24.44987        -0.39207
C         48.99379        25.17057        -0.49469
C         50.28483        27.25995        -0.75081
C         48.97549        26.58897        -0.61479
C         50.32132        28.76769        -0.85915
C         49.02608        29.50005        -1.07360
C         50.22187        31.71139        -0.54553
C         49.02870        30.99792        -1.07671
C         50.18399        33.07985        -0.34351
C         48.90352        33.78292        -0.41163
C         50.16115        35.96547        -0.06429
C         48.85803        35.23493        -0.15720
C         50.18321        37.38182        -0.51987
C         48.92215        38.13987        -0.59602
C         50.25516        40.23465        -0.57440
C         48.99784        39.54534        -0.73862
C         50.31459        41.69431        -0.74585
C         48.98750        42.47298        -0.91020
C         50.21484        44.54100        -0.30392
C         48.99259        43.89573        -0.54258
C         50.23312        45.98920        -0.00622
C         48.94296        46.74993        -0.07529
C         50.23721        48.86037        -0.34862
C         48.99524        48.19974        -0.32016
C         50.24823        50.30661        -0.68703
C         48.93695        51.09274        -0.58354
C         50.22321        53.17450        -0.77113
C         48.99226        52.58459        -0.63995
C         51.42606        20.86998        -0.13525
C         52.69254        23.02142         0.04455
C         51.47945        22.31513        -0.22121
C         52.69676        24.44764         0.03502
C         51.47905        25.15756        -0.18804
C         52.68665        27.30250        -0.11987
C         51.49469        26.57421        -0.28022
C         52.67686        28.76268        -0.15536
C         51.51326        29.47841        -0.38556
C         52.65790        31.69589         0.03638
C         51.36444        30.91947         0.06929
C         52.66784        33.08578         0.05698
C         51.41861        33.82239        -0.06086
C         52.65975        35.96122         0.15409
C         51.43908        35.21262        -0.05139
C         52.67162        37.37490         0.15543
C         51.49885        38.11773        -0.34220
C         52.62330        40.28759         0.18798
C         51.44748        39.57790        -0.23149
C         52.60263        41.69539         0.23169
C         51.47579        42.42194        -0.21699
C         52.67734        44.58095         0.08272
C         51.44473        43.83881        -0.15458
C         52.70891        46.00785        -0.06724
C         51.49207        46.74540        -0.13424
C         52.73005        48.94310         0.01615
C         51.46229        48.14787        -0.21179
C         52.78412        50.25147        -0.79047
C         51.51048        51.07116        -0.65228
C         51.45847        52.43515        -0.73057
C         55.07376        23.03669         0.59906
C         53.92624        22.34644         0.31217
C         55.12511        24.46725         0.58869
C         53.91273        25.18084         0.24037
C         55.13560        27.34936         0.31886
C         53.88821        26.59203         0.16440
C         55.05100        28.80808         0.53222
C         53.89649        29.46779         0.21600
C         55.20209        31.70028         0.35432
C         53.90646        30.94239         0.04550
C         55.10566        33.14507         0.57950
C         53.89724        33.82226         0.31625
C         55.05640        35.96739         0.75120
C         53.87161        35.24852         0.41776
C         55.04552        37.39987         0.79233
C         53.84339        38.10998         0.48958
C         55.00833        40.23506         0.90153
C         53.82885        39.54691         0.53992
C         54.98644        41.70282         1.11984
C         53.67743        42.47113         0.95502
C         55.11207        44.55351         0.40362
C         53.84866        43.88218         0.41768
C         55.14878        45.94044         0.03608
C         53.96755        46.69190        -0.09557
C         55.20087        48.83823        -0.20664
C         54.00993        48.13856        -0.17981
C         55.18097        50.29754        -0.17102
C         54.05732        50.99053        -0.44020
C         57.45908        24.51229         1.49572
C         56.30665        25.15544         0.95497
C         57.50342        27.37071         1.34796
C         56.39084        26.60903         0.73805
C         57.47275        28.77169         1.41031
C         56.16526        29.51352         1.26933
C         57.43882        31.66494         1.41998
C         56.33003        30.96744         0.93286
C         57.45070        33.11094         1.39116
C         56.26905        33.83520         1.01932
C         57.45202        35.97133         1.38765
C         56.25307        35.25857         1.06930
C         57.46336        37.39769         1.32638
C         56.24881        38.11643         1.05717
C         57.49744        40.25582         1.17444
C         56.23950        39.54169         1.07512
C         57.55443        41.66609         1.01344
C         56.30086        42.44291         1.06228
C         57.60014        44.51185         0.55997
C         56.32851        43.86194         0.66200
C         57.66683        45.89335         0.22347
C         56.44435        46.58717        -0.19076
C         57.77739        48.76996        -0.03236
C         56.48897        48.12566        -0.34006
C         58.58630        25.21572         1.85707
C         59.76505        27.37126         2.26142
C         58.63393        26.64831         1.81151
C         59.76284        28.75334         2.25517
C         58.61085        29.49004         1.86863
C         59.70075        31.68810         2.34937
C         58.59096        30.94323         1.90773
C         59.71867        33.07456         2.29167
C         58.61000        33.81318         1.80707
C         59.81579        35.99329         1.99506
C         58.63473        35.25961         1.73664
C         59.84341        37.36960         1.87150
C         58.68138        38.09900         1.52527
C         59.94005        40.23524         1.30343
C         58.71252        39.53366         1.34332
C         59.98116        41.60006         1.10066
C         58.78749        42.35118         0.97028
C         60.03538        44.51244         0.78052
C         58.81853        43.79772         0.78714
C         60.07382        45.88208         0.56071
C         58.88941        46.59480         0.26449
C         58.90501        48.03923         0.15152
O         55.62392        42.14131         2.37103
O         50.54873        27.91849        -2.04088
O         43.52128        22.46956        -2.19765
O         38.14435        31.22074        -2.04000
O         42.07061        44.45460        -1.80643
O         45.82744        39.94528        -2.36844
O         44.11510        43.15991         0.88888
O         46.52792        25.93213         0.96774
O         51.05926        37.60372        -1.66266
O         49.50722        46.34523         1.23601
O         49.85025        42.16291        -2.05114
O         26.77304        43.09587         2.89553
O         31.74600        43.14669         2.62826
O         49.38409        35.71059         1.15564
O         24.83669        40.12417        -0.38965
O         41.03816        20.38392        -2.25475
O         42.92755        49.67026         1.77392
O         46.67933        52.17911         0.92636
O         56.17090        26.99301        -0.67525
O         56.54865        47.24315        -1.50291
O         44.63112        20.80358         1.00512
O         25.90590        29.04860        -1.57140
O         39.21695        47.24256         1.79486
O         42.22989        46.06320         1.38929
O         41.10515        55.42715         0.39490
O         42.41015        19.57005         0.92949
O         34.87169        31.35692         1.61729
O         37.56202        41.09641        -1.68829
O         44.65939        29.28072         0.88688
O         41.48799        26.03449        -2.29421
O         33.23925        40.68511         2.28889
O         54.84317        31.31720        -1.02669
O         49.22901        30.24490        -2.33695
O         49.11718        21.50475        -2.00966
O         49.42541        50.56215        -1.87533
O         45.09455        45.44603        -1.93797
O         26.51338        38.60208         2.35229
O         32.92205        32.17073        -1.27313
O         31.23802        34.53995        -1.17451
O         43.55585        33.34547        -2.55490
O         52.68408        49.34026         1.41874
H         52.55609        48.53293         1.95998
O         35.65495        28.72507         1.94155
H         35.52132        29.66097         2.23928
O         28.17987        48.01542        -1.30313
H         27.46460        48.30931        -1.90472
O         34.11980        24.92020         1.62756
H         33.38042        25.44708         1.99998
O         29.15894        35.18874         2.45317
H         29.92053        34.61342         2.71119
O         31.58566        48.40094         2.57213
H         31.88004        49.32504         2.72627
O         41.12353        33.98994        -2.89956
H         41.99540        33.98636        -3.36365
O         28.76989        48.54493         2.27201
H         29.58683        48.38551         2.80362
O         47.48800        31.99131        -2.65186
H         47.95872        31.26904        -3.13514
O         38.95150        52.86030         1.79351
H         39.79030        52.56563         2.20927
O         30.82052        33.04878         2.12876
H         30.26004        32.39532         2.60025
O         52.84942        49.86750        -2.18855
H         52.76680        50.67440        -2.73757
O         53.12573        42.64689         2.30073
H         53.90209        42.75077         2.90097
O         38.08603        27.34528         1.56310
H         37.28257        27.77210         1.95913
O         40.14664        46.43228        -1.61473
H         40.76401        45.83414        -2.10719
O         24.05103        33.93395        -1.87153
H         24.74510        34.57423        -2.16058
O         50.97143        30.78561         1.49247
H         50.91001        31.68948         1.87077
O         55.63851        29.54902         2.67128
H         56.35012        29.91896         3.23847
O         23.90950        30.79115        -2.00222
H         24.65090        30.26590        -2.38116
O         25.58901        36.25537        -1.55686
H         24.90638        36.91731        -1.80495
H         22.60856        27.18639         2.01800
H         22.50282        29.57370         1.43699
H         22.08725        31.13495         0.27679
H         22.11406        33.53778         0.46937
H         22.02402        35.40781         0.23997
H         21.98518        37.83569         0.56820
H         21.97168        39.74817         1.30602
H         22.03264        42.13299         1.70755
H         22.02333        44.05960         1.61780
H         22.02788        46.49055         1.25650
H         25.62385        23.57239         0.97361
H         23.72675        24.90551         1.80604
H         25.36632        49.71250         0.12387
H         23.25200        48.56919         0.67600
H         26.97107        22.53803        -0.11822
H         27.00104        50.61665        -0.41142
H         29.04424        21.30200        -0.45572
H         29.06714        51.85789        -0.30788
H         32.76801        19.16523        -0.99159
H         30.66988        20.37516        -0.86777
H         32.77350        53.98743        -0.78401
H         30.69167        52.77631        -0.49926
H         34.38299        18.20788        -0.90879
H         34.39973        54.84073        -1.25622
H         36.47189        16.97793        -0.96259
H         36.48884        56.05068        -1.50701
H         40.23268        14.76213        -0.68188
H         38.10238        15.97960        -0.82967
H         40.12383        58.05827        -2.39866
H         38.07627        57.04897        -1.55657
H         42.71890        14.76870        -0.43209
H         42.46119        57.74388        -3.22027
H         44.83536        15.94628        -0.21197
H         44.56716        56.48555        -3.16631
H         48.60499        18.11311        -0.40055
H         46.52538        16.90015        -0.20384
H         48.48526        54.65607        -2.44484
H         46.27940        55.62057        -2.94604
H         50.30583        19.07035        -0.10929
H         50.28759        54.26521        -0.89380
H         52.33368        20.32870         0.16334
H         52.38694        53.02285        -0.77181
H         55.98880        22.46708         0.80918
H         53.96649        21.24967         0.30026
H         56.11998        50.83717         0.01764
H         54.09368        52.08846        -0.48663
H         57.46249        23.42062         1.61926
H         57.82998        49.86594         0.03015
H         59.46408        24.67626         2.24100
H         60.65112        26.82303         2.61181
H         60.66492        29.28092         2.59166
H         60.59004        31.17541         2.73890
H         60.61591        33.59786         2.64659
H         60.74223        35.47242         2.26969
H         60.78847        37.89427         2.06261
H         60.88807        39.69203         1.40808
H         60.95880        42.09665         1.05872
H         60.98132        43.98958         0.97249
H         61.03246        46.41844         0.59942
H         59.86284        48.55099         0.32824
