         595
 CSIRO Nanostructure Databank - Neutral Graphene Oxide Data Set
C         23.12850        69.91708         0.96129
C         23.13028        71.32749         1.08795
C         21.95058        72.05398         1.39362
C         23.14579        74.15671         1.19893
C         21.97506        73.44864         1.46053
C         25.39780        65.53064         0.21751
C         25.15486        66.81979         0.72981
C         24.14170        67.75047         0.49674
C         25.55550        69.88277         0.59993
C         24.30364        69.16794         0.74870
C         25.53221        71.32253         0.52762
C         24.34303        72.04157         0.84309
C         25.53787        74.16964         0.55588
C         24.34744        73.47206         0.86434
C         27.93301        61.36906        -0.12712
C         27.92593        62.79171        -0.10923
C         26.72521        63.51740         0.00643
C         27.96074        65.64242         0.10095
C         26.69548        64.92052         0.17560
C         28.04154        67.07575         0.14321
C         27.01090        67.86953         0.68884
C         27.92776        69.89116        -0.24845
C         26.81572        69.22558         0.36817
C         27.80912        71.34070        -0.49114
C         26.67248        72.05430         0.09730
C         27.91862        74.19649        -0.11232
C         26.69879        73.48138         0.14454
C         30.34224        57.08287         0.16378
C         30.31840        58.49775         0.10252
C         29.14349        59.21676        -0.11414
C         30.38097        61.38057        -0.19609
C         29.13101        60.65129        -0.12870
C         30.38529        62.79518        -0.34020
C         29.16167        63.50951        -0.23398
C         30.37468        65.63762        -0.54374
C         29.15665        64.93613        -0.22545
C         30.34512        67.04222        -0.70240
C         29.16523        67.77457        -0.39220
C         30.25388        69.90252        -1.23671
C         29.10214        69.19804        -0.54182
C         30.34425        71.38308        -0.90669
C         29.07549        72.12682        -0.81313
C         30.36661        74.22061        -0.47988
C         29.10800        73.56049        -0.45959
C         32.61150        52.75224         0.53395
C         32.74971        54.14158         0.33122
C         31.54503        54.91794         0.36373
C         32.80242        57.01420         0.55000
C         31.51196        56.31717         0.38190
C         32.83109        58.51360         0.48462
C         31.53177        59.31616         0.50960
C         32.82108        61.36378        -0.33114
C         31.60897        60.68533        -0.13255
C         32.85388        62.77334        -0.56547
C         31.62300        63.49481        -0.52010
C         32.82315        65.54863        -1.09645
C         31.61261        64.90439        -0.71346
C         32.76289        66.99678        -1.40076
C         31.55362        67.77292        -1.01621
C         32.82734        69.88342        -1.11118
C         31.55238        69.14176        -1.08411
C         32.82070        71.36649        -0.99294
C         31.51732        72.08031        -0.91950
C         32.82258        74.18251        -0.71041
C         31.56087        73.52610        -0.73095
C         35.27423        48.52035         0.42628
C         35.25620        49.89684         0.45430
C         33.97835        50.56231         0.78692
C         35.48306        52.81942        -0.01384
C         33.62551        51.77444         0.24171
C         35.32889        54.16462         0.29879
C         34.04161        54.87433         0.24034
C         35.32990        57.04483         0.64317
C         34.05221        56.25062         0.36102
C         35.32275        58.42404         0.03409
C         34.06565        59.11662        -0.11623
C         35.35509        61.32449        -0.54273
C         34.06536        60.60085        -0.50959
C         35.35163        62.72168        -0.80495
C         34.08558        63.44508        -0.86568
C         35.28459        65.48580        -1.67610
C         34.03797        64.82675        -1.19775
C         35.33210        66.99335        -1.85207
C         34.03571        67.74665        -1.71279
C         35.28715        69.85783        -1.41400
C         34.08527        69.19417        -1.45844
C         35.29947        71.35350        -1.50438
C         33.98445        72.13657        -1.58221
C         35.26491        74.20517        -0.80513
C         34.04444        73.53770        -0.98056
C         37.65565        44.29004        -0.47136
C         37.72425        45.62096         0.09529
C         36.53002        46.32649         0.09122
C         37.83277        48.50425         0.28943
C         36.48875        47.78140         0.10260
C         37.76708        49.93427         0.61817
C         36.54140        50.61647         0.41126
C         37.75915        52.73898         0.83250
C         36.59279        52.04734         0.41005
C         37.72582        54.15717         0.87842
C         36.53148        54.83246         0.67063
C         37.86456        56.93402         0.06906
C         36.55791        56.25955         0.29045
C         37.88033        58.40985        -0.21893
C         36.54831        59.13108        -0.34124
C         37.81405        61.28344        -0.43015
C         36.56129        60.61398        -0.38556
C         37.81572        62.65681        -0.81211
C         36.60893        63.35528        -1.04511
C         37.89959        65.53982        -1.65997
C         36.60263        64.74208        -1.59032
C         37.85840        67.02720        -1.46451
C         36.60090        67.73605        -1.58940
C         37.73675        69.82523        -0.86621
C         36.53925        69.11436        -1.37097
C         37.73160        71.33251        -0.71941
C         36.55165        72.10040        -1.21452
C         37.73811        74.19689        -0.70629
C         36.52467        73.55558        -0.90652
C         40.33282        40.19540        -1.09523
C         40.23655        41.48542        -0.55571
C         39.00110        42.16222        -0.84478
C         40.29249        44.16780         0.77379
C         38.54624        43.27457        -0.13190
C         40.21594        45.57634         0.73948
C         38.97863        46.29027         0.52187
C         40.20941        48.39264         1.03900
C         39.01761        47.69581         0.63272
C         40.21030        49.85413         1.18113
C         38.97377        50.61259         0.97241
C         40.15804        52.77452         1.40143
C         38.96287        52.02186         1.10344
C         40.20200        54.16505         1.36280
C         38.92469        54.95670         1.31042
C         40.23321        57.01804         0.76961
C         39.07232        56.28259         0.59417
C         40.22307        58.46440         0.55566
C         39.08763        59.17593         0.14253
C         40.26950        61.33430        -0.00282
C         39.06306        60.59840        -0.09052
C         40.35391        62.68180        -0.44464
C         39.13439        63.30960        -1.02751
C         40.42947        65.53498        -1.15557
C         39.17827        64.76536        -1.40939
C         40.33468        67.02343        -1.05420
C         39.02728        67.72736        -1.12772
C         40.22008        69.87897        -0.61238
C         39.04172        69.14056        -0.87469
C         40.20935        71.33542        -0.52698
C         39.00663        72.05803        -0.67254
C         40.21523        74.17463        -0.58153
C         38.99466        73.48548        -0.68074
C         42.72490        36.15093        -2.38277
C         42.71106        37.39283        -1.70797
C         41.51873        38.13617        -1.60494
C         42.70714        39.97642        -0.45528
C         41.51134        39.41980        -1.03659
C         42.66083        41.34738         0.03174
C         41.42850        42.07363         0.05156
C         42.69922        44.14312         0.75371
C         41.47031        43.44218         0.50341
C         42.65755        45.50126         1.12444
C         41.45073        46.25931         0.99472
C         42.63360        48.34882         1.67285
C         41.40058        47.67026         1.22291
C         42.64565        49.84694         1.81944
C         41.36890        50.54031         1.52359
C         42.66452        52.75011         1.91326
C         41.34858        51.99397         1.76221
C         42.66139        54.21200         1.67244
C         41.42639        54.92096         1.47833
C         42.65776        57.07806         1.33243
C         41.42861        56.33300         1.25012
C         42.69477        58.43573         1.05517
C         41.44061        59.20014         0.89726
C         42.76626        61.37458         0.37276
C         41.47250        60.70494         0.57488
C         42.80013        62.67926        -0.06817
C         41.58176        63.37896        -0.42572
C         42.78583        65.52879        -0.44802
C         41.63065        64.80704        -0.66407
C         42.74043        66.98166        -0.17351
C         41.45519        67.73555        -0.37140
C         42.68363        69.86554        -0.18066
C         41.48327        69.20535        -0.43994
C         42.65288        71.33979        -0.01507
C         41.41366        72.05959        -0.32930
C         42.68030        74.21146        -0.38862
C         41.43875        73.48265        -0.41242
C         45.16646        33.58955        -3.57227
C         43.95945        34.23210        -3.32432
C         45.15238        36.02077        -2.09994
C         43.92623        35.46139        -2.60392
C         45.13259        37.20270        -1.33984
C         43.92363        37.93173        -1.14402
C         45.09787        39.72569         0.18426
C         43.88114        39.19460        -0.46868
C         45.09516        41.18150         0.56994
C         43.87198        42.00400         0.40893
C         45.13799        44.01098         1.18288
C         43.93472        43.38947         0.72936
C         45.14492        45.36270         1.74636
C         43.82342        46.13090         1.87393
C         45.19105        48.37038         1.50181
C         43.92134        47.60424         1.47443
C         45.17368        49.86149         1.64202
C         43.94287        50.58786         1.74240
C         45.13814        52.75249         1.71836
C         43.93320        51.99932         1.77317
C         45.11888        54.16309         1.71548
C         43.88960        54.88070         1.67121
C         45.21402        57.12871         1.77869
C         43.89678        56.36115         1.73665
C         45.19692        58.53451         1.36687
C         43.97659        59.14335         0.87586
C         45.29858        61.36228         0.68607
C         44.02808        60.60681         0.49264
C         45.34510        62.72291         0.33517
C         44.11491        63.34970        -0.22841
C         45.29113        65.63257        -0.06113
C         44.08521        64.85197        -0.38241
C         45.23283        67.00696        -0.03476
C         43.99032        67.75700        -0.10773
C         45.17879        69.94247         0.29970
C         43.93166        69.15027        -0.06594
C         45.20596        71.40293        -0.24250
C         43.92325        72.13520         0.05413
C         45.16523        74.28191        -0.31752
C         43.92050        73.59086        -0.24439
C         46.37541        34.14394        -3.13860
C         47.62759        35.95494        -2.05151
C         46.40338        35.35653        -2.40742
C         47.68244        37.16122        -1.30262
C         46.40394        37.67927        -0.74282
C         47.70065        39.71997         0.16345
C         46.39967        38.97730         0.01630
C         47.67541        41.21715         0.24386
C         46.39401        41.92746         0.51887
C         47.74659        44.06034         1.18700
C         46.39262        43.27847         1.17010
C         47.71152        45.52159         1.24157
C         46.50276        46.15888         1.78766
C         47.68566        48.40606         1.42873
C         46.46603        47.68727         1.97713
C         47.65570        49.82550         1.44520
C         46.41075        50.52545         1.63129
C         47.68889        52.73760         1.47986
C         46.41522        51.99965         1.77765
C         47.59927        54.17553         1.09415
C         46.34669        54.92115         1.34428
C         47.66214        57.04876         1.28339
C         46.47718        56.38813         1.52574
C         47.74032        58.49880         1.54976
C         46.41982        59.29740         1.50763
C         47.69721        61.43319         1.21220
C         46.48081        60.72380         1.11732
C         47.75495        62.81682         0.89236
C         46.55926        63.44329         0.42510
C         47.85422        65.62535         0.20486
C         46.57318        64.86653         0.00060
C         47.73062        67.10164         0.38681
C         46.49897        67.77055        -0.12370
C         47.74422        70.02553         0.01474
C         46.46115        69.24937        -0.11726
C         47.70484        71.51961         0.08171
C         46.38982        72.20380         0.36647
C         47.63985        74.33249        -0.00808
C         46.41284        73.65938        -0.06636
C         48.87813        37.82495        -1.09756
C         50.07824        40.02427        -0.73914
C         48.97106        39.11306        -0.40246
C         50.12211        41.33686        -0.32582
C         49.01523        41.88861         0.56910
C         50.02785        44.22666         0.00239
C         48.85551        43.39646         0.42660
C         50.07977        45.64385         0.41671
C         48.87017        46.27626         0.92084
C         50.13391        48.42994         1.10829
C         48.86084        47.69407         1.13119
C         50.09766        49.88416         1.02577
C         48.89646        50.54810         1.20323
C         49.97255        52.68194         0.57151
C         48.89394        51.99002         1.08358
C         49.82639        54.08657         0.27008
C         48.86264        54.89482         0.80832
C         50.23125        57.17790         0.75430
C         48.88896        56.37990         0.74600
C         50.19576        58.58729         1.25323
C         49.00743        59.24830         1.42073
C         50.19749        61.50143         1.83406
C         48.91854        60.71763         1.69141
C         50.22831        62.94030         1.48442
C         49.01007        63.57663         1.06740
C         50.19118        65.74225         1.07619
C         49.02912        64.95998         0.80378
C         50.21260        67.16987         0.90899
C         48.94886        67.90159         0.70905
C         50.14808        70.07704         0.53980
C         48.98790        69.35125         0.41444
C         50.15470        71.54431         0.48276
C         48.93819        72.25711         0.39041
C         50.12619        74.37672         0.36813
C         48.90248        73.67998         0.28359
C         51.24856        42.15751        -0.63268
C         52.43516        44.30588        -0.60911
C         51.28227        43.53723        -0.39189
C         52.46322        45.69993        -0.33530
C         51.27932        46.32441         0.24067
C         52.56855        48.51102         0.23726
C         51.41011        47.71376         0.68328
C         52.59322        49.89074         0.46421
C         51.41028        50.63617         1.04998
C         52.62274        52.81698         0.51957
C         51.30762        52.04352         0.45189
C         52.73274        54.27899         0.78008
C         51.73964        55.13672         0.37946
C         52.73521        57.15516         1.18057
C         51.57218        56.50413         0.79985
C         52.75736        58.58492         1.32145
C         51.47176        59.26046         1.59508
C         52.75422        61.49243         1.63217
C         51.49804        60.74837         1.87663
C         52.73999        62.90313         1.67137
C         51.44836        63.64388         1.63584
C         52.43410        65.95594         1.88803
C         51.37072        65.08274         1.54352
C         52.57617        67.26144         1.43473
C         51.38922        67.92512         1.02204
C         52.57377        70.06394         0.86508
C         51.39429        69.37233         0.81935
C         52.65018        71.50453         0.40195
C         51.36290        72.26067         0.57550
C         52.60939        74.39999         0.54191
C         51.37239        73.69496         0.53105
C         53.63779        46.44385        -0.53665
C         54.92886        48.58209        -0.42475
C         53.72546        47.84766        -0.26999
C         55.00130        49.94241        -0.06480
C         53.80147        50.59711         0.31835
C         55.17142        52.65708         0.99016
C         53.83950        51.98883         0.82213
C         55.23859        54.12609         1.31556
C         53.92942        54.86319         1.43239
C         55.27589        57.06803         1.26260
C         53.97326        56.38207         1.45832
C         55.23982        58.55767         1.32527
C         53.94370        59.28434         1.33510
C         55.12647        61.39050         0.92759
C         53.96649        60.74163         1.35514
C         55.29178        62.85706         1.08748
C         54.00620        63.55872         1.46726
C         55.22875        65.69832         1.04598
C         54.25039        64.89843         1.72172
C         55.16737        67.13759         1.06015
C         53.92080        67.91488         1.44339
C         55.04629        70.07094         0.52829
C         53.86141        69.38201         1.11665
C         55.13688        71.52352         0.76755
C         53.86059        72.21100         0.97778
C         55.19072        74.37818         0.78447
C         53.87157        73.77385         0.92580
C         56.23615        50.71176        -0.11408
C         57.51838        52.82068         0.12524
C         56.33882        52.00155         0.35794
C         57.62175        54.15285         0.40770
C         56.51147        54.89756         1.07493
C         57.72281        57.11954         0.78322
C         56.44290        56.39092         1.02048
C         57.65122        58.55469         0.42914
C         56.46432        59.30697         0.86869
C         57.29724        61.36722        -0.24443
C         56.30920        60.71691         0.45403
C         57.15995        62.80246        -0.73942
C         55.93298        63.57137        -0.12004
C         57.36802        65.69649        -0.14993
C         56.22203        65.02089         0.28350
C         57.45223        67.11802         0.10256
C         56.28235        67.81431         0.56444
C         57.56547        70.00942         0.41381
C         56.29447        69.28170         0.36065
C         57.58143        71.42156         0.56492
C         56.34896        72.17886         0.74031
C         57.66190        74.26347         0.74367
C         56.38736        73.63687         0.80126
C         58.92279        54.85131         0.04867
C         59.96642        57.13160        -0.43984
C         58.94077        56.35899         0.27787
C         59.88676        58.50318        -0.57545
C         58.66823        59.20748        -0.20650
C         59.73148        61.39957        -0.90490
C         58.45863        60.58108        -0.81359
C         59.68443        62.78473        -1.00573
C         58.48923        63.55365        -0.71887
C         59.69500        65.72710        -1.07658
C         58.49885        64.94867        -0.66707
C         59.79756        67.19015        -0.72836
C         58.64007        67.84670        -0.10620
C         60.00500        69.89500         0.14426
C         58.74640        69.24938         0.17671
C         60.05422        71.30407         0.56058
C         58.81866        72.09841         0.59627
C         60.12844        74.19906         0.53274
C         58.87297        73.52900         0.66280
C         61.00751        59.28992        -1.02551
C         62.20045        61.41393        -1.32234
C         60.97211        60.67390        -1.08354
C         62.20439        62.76460        -1.45396
C         60.92100        63.49579        -1.42623
C         62.25229        65.70405        -1.29591
C         60.95674        64.99678        -1.41941
C         62.29989        67.09164        -0.95677
C         61.12311        67.83371        -0.62998
C         62.44398        69.90370        -0.35324
C         61.19660        69.19724        -0.23596
C         62.52075        71.31195        -0.13820
C         61.37652        72.04678         0.42996
C         62.55614        74.18098         0.04507
C         61.34109        73.52223         0.31867
C         63.41304        63.52828        -1.95202
C         64.67683        65.64950        -1.51127
C         63.44963        64.98808        -1.53718
C         64.75935        67.05136        -1.27513
C         63.55971        67.76678        -0.96638
C         64.83720        69.85987        -0.97009
C         63.61862        69.17787        -0.75196
C         64.83363        71.32201        -0.99025
C         63.67294        72.04003        -0.46080
C         65.00990        74.11599        -0.26773
C         63.74614        73.46400        -0.25467
C         65.99259        67.74229        -1.33803
C         67.30820        69.83986        -1.16734
C         66.05185        69.14725        -1.20483
C         67.40444        71.21004        -0.92201
C         66.19412        72.04907        -0.97870
C         67.48171        73.97541        -0.13776
C         66.22014        73.42330        -0.44846
C         68.62696        71.85845        -0.59408
C         68.65125        73.20588        -0.23877
O         47.49213        65.14877        -1.12462
O         49.35980        61.20085         3.00216
O         43.26756        71.77243         1.30607
O         45.95059        45.48506         2.95814
O         56.18505        59.11694         2.30056
O         41.26803        60.21703         1.95451
O         44.93862        40.14776         1.58827
O         48.91781        43.89890        -0.93205
O         65.41917        71.90644        -2.20354
O         33.66126        72.30166        -2.98224
O         37.45524        70.49274         0.44412
O         53.78460        55.57628         2.68431
O         46.69091        54.45790        -0.04770
O         34.50327        52.20424        -0.78222
O         37.12886        56.27476        -1.04721
O         51.52149        59.79615         2.97696
O         52.06127        52.33985        -0.75407
O         47.30009        52.47887         2.86844
O         35.22000        66.11330        -2.99784
O         37.28013        48.28300        -1.04805
O         46.50687        68.52231        -1.38679
O         47.08346        58.94228         2.77775
O         26.16299        67.28266         1.61759
O         48.64577        39.10383         1.06828
O         60.94084        71.53889         1.72955
O         51.11164        47.92984         2.11611
O         56.16437        54.37394         2.40633
O         44.13625        59.60095        -0.58449
O         59.42929        66.73796        -2.11053
O         42.54130        48.95679         2.99757
O         53.46515        65.50075         2.70502
O         47.87481        70.85563        -1.21925
O         44.31652        63.95326        -1.53873
O         37.30085        64.96605        -2.85149
O         33.11074        67.37412        -2.78508
O         49.43691        56.99072        -0.46194
O         33.87740        59.55812        -1.52713
O         47.95984        67.52535         1.76927
O         50.80815        54.65449        -0.53410
O         41.79828        67.23729         0.96268
O         28.11647        71.77234        -1.87498
O         55.43236        69.65031        -0.81759
O         39.15909        43.45104         1.12654
O         37.33218        58.66767        -1.53733
O         40.75376        66.40216        -2.31144
O         60.76836        64.26661        -2.69648
O         32.97396        57.86416         1.78969
O         54.49276        52.00255         2.12524
O         46.38060        37.71112         0.73142
O         58.81037        56.73648         1.68900
O         54.09807        68.92487         2.49629
O         39.38314        63.73167        -2.41627
O         44.63494        47.87349         0.22827
O         33.08135        70.61110         0.22001
O         44.46359        56.82540         3.01953
O         41.88378        52.35541         3.09046
O         53.69913        72.94719         2.17068
O         47.25054        43.35442         2.34483
O         46.95517        41.87159        -0.84617
O         56.90384        62.69665        -2.19529
H         57.37536        63.43399        -2.64200
O         43.43863        46.09480         3.26404
H         44.26525        46.08745         3.79966
O         63.37323        63.48113        -3.39220
H         62.48999        63.83298        -3.65579
O         45.21347        69.93731         1.74156
H         44.42375        70.44191         2.05466
O         58.10818        60.26988        -2.20921
H         57.71157        61.09190        -2.59058
O         59.26297        54.57280        -1.31845
H         58.56278        54.93087        -1.90127
O         38.63833        55.34255         2.70683
H         39.47450        55.66122         3.10990
O         45.30330        71.37616        -1.67241
H         46.19420        71.01859        -1.91790
O         31.27726        59.67540         1.90580
H         31.53698        58.89493         2.44936
O         29.95261        69.85536        -2.66992
H         29.18140        70.45780        -2.81292
O         46.48513        47.93828         3.40410
H         47.21933        47.42610         3.80323
O         54.89211        63.66861        -1.11189
H         55.26770        63.33970        -1.96512
O         51.69686        50.85451         2.46191
H         51.74324        49.96913         2.88872
O         49.36470        41.61353         1.93373
H         49.33333        40.63345         2.05350
O         35.46815        57.19670         2.09485
H         34.59453        57.51002         2.43842
O         56.22733        63.04136         2.19530
H         55.93202        62.48069         2.94412
O         46.27658        72.23614         1.80647
H         45.41499        72.64187         2.04114
O         52.91472        71.45739        -1.03866
H         52.15875        71.01181        -1.47656
O         36.20137        71.77668        -2.60699
H         34.51302        72.44839        -3.45474
H         23.14735        75.25538         1.23732
H         25.54887        75.26851         0.60324
H         27.92882        75.27990         0.07911
H         30.40321        75.30074        -0.27407
H         32.84527        75.24711        -0.42835
H         35.24826        75.25989        -0.48847
H         37.75329        75.28331        -0.53349
H         40.21862        75.27417        -0.60608
H         42.63866        75.29922        -0.55097
H         45.14665        75.35947        -0.54469
H         47.66068        75.41506        -0.20994
H         50.13159        75.47324         0.27743
H         52.61487        75.46596         0.26814
H         55.24321        75.45455         0.56046
H         57.71340        75.36246         0.76676
H         60.12964        75.29949         0.51109
H         62.59080        75.28021         0.07965
H         65.04746        75.17834         0.01746
H         67.54265        75.01543         0.21325
H         22.17312        69.38096         1.06322
H         21.01413        71.50837         1.57764
H         21.05440        73.99521         1.70867
H         24.55562        64.95039        -0.18918
H         23.18420        67.41979         0.06755
H         26.97458        60.83086        -0.08109
H         25.77461        62.96404         0.03378
H         29.39875        56.54360        -0.01550
H         28.19203        58.68030        -0.25217
H         31.63747        52.39737         0.90803
H         30.58810        54.37603         0.31079
H         34.35794        47.94929         0.63605
H         33.30603        50.04385         1.48697
H         36.91422        44.12076        -1.26633
H         35.59020        45.78289        -0.08890
H         39.45034        39.76209        -1.58881
H         38.40743        41.78692        -1.69172
H         41.78137        35.74406        -2.77535
H         40.58986        37.73129        -2.03263
H         45.17528        32.64320        -4.13098
H         43.01592        33.80110        -3.68808
H         47.32406        33.63810        -3.36832
H         48.56910        35.49198        -2.38250
H         49.79173        37.43191        -1.56911
H         50.88604        39.63175        -1.37576
H         52.13475        41.67670        -1.07474
H         53.35083        43.81416        -0.96932
H         54.52924        45.92400        -0.91791
H         55.83429        48.05963        -0.76750
H         57.11725        50.24130        -0.57734
H         58.37587        52.33077        -0.36267
H         59.74395        54.40268         0.66735
H         60.83137        56.58871        -0.84887
H         61.96160        58.77327        -1.20960
H         63.13746        60.84492        -1.42129
H         64.35570        63.01810        -1.63005
H         65.59881        65.08812        -1.72304
H         66.91712        67.17668        -1.52535
H         68.22989        69.23969        -1.20623
H         69.55908        71.27554        -0.59768
H         69.61381        73.67162         0.01555
