         349
 CSIRO Nanostructure Databank - Neutral Graphene Oxide Data Set
C          1.00673         3.68199        -0.02675
C         -0.07663         4.42420        -0.37370
C          1.07584         6.58055        -0.15094
C         -0.06249         5.86937        -0.38815
C          1.15526         8.09834        -0.01075
C         -0.11201         8.80741        -0.37520
C          1.11891        10.73700        -1.37113
C         -0.10344        10.02255        -0.92853
C          0.90871        12.27381        -1.47165
C         -0.27138        13.03455        -0.97927
C          1.29742        14.47009         0.34168
C         -0.07702        14.13487        -0.22692
C          1.46120        15.89130         0.88725
C          0.43266        16.31715         1.73444
C          1.65957        18.31522         2.23547
C          0.53432        17.51449         2.43409
C          1.52586        20.61790         2.31548
C          0.35235        21.29628         2.48253
C          1.30853        23.33848         1.56008
C          0.22831        22.65161         2.04262
C          1.26445        24.82742         1.45554
C          0.00949        25.52093         1.10475
C          1.21494        27.60665         0.59641
C         -0.00199        26.82823         0.74129
C          1.15708        28.97220         0.11037
C          3.52862         3.59866         0.42591
C          2.25383         4.32484         0.40991
C          3.59811         6.46538        -0.02864
C          2.29401         5.85883         0.27410
C          3.64403         7.93231        -0.35621
C          2.39864         8.70115        -0.66758
C          3.75966        10.56757        -1.50166
C          2.43961         9.98573        -1.20151
C          3.97235        11.98592        -1.79634
C          2.10707        13.13118        -1.52195
C          3.74925        14.69427        -0.32912
C          2.36865        14.16089        -0.68508
C          3.80698        16.18670         0.00351
C          2.63709        16.69270         0.73335
C          3.95088        18.81750         1.28976
C          2.69833        17.98114         1.34635
C          3.97284        20.34353         1.49576
C          2.66036        21.12198         1.53139
C          3.84680        23.41384         1.17894
C          2.57005        22.62753         1.24824
C          3.79499        24.85257         0.87475
C          2.54204        25.57813         1.15259
C          3.69602        27.73035         0.62471
C          2.44055        26.98159         0.73056
C          3.61359        29.19297         0.22516
C          2.27788        29.69699        -0.13970
C          5.98505         3.58895         0.70373
C          4.73446         4.27472         0.41999
C          6.03782         6.24985        -0.32774
C          4.73787         5.69661         0.07089
C          6.15371         7.62883        -0.81301
C          4.97275         8.50729        -0.78957
C          6.20758        10.63353        -1.28765
C          4.96045         9.88274        -1.33099
C          6.19788        12.03616        -0.73533
C          4.98653        12.72678        -1.28186
C          6.20706        14.89194        -0.78447
C          4.89875        14.23739        -1.28149
C          6.13420        16.42506        -0.98248
C          4.97787        16.90504        -0.09372
C          6.32208        19.06526         0.19584
C          5.15017        18.21860         0.58477
C          6.31857        20.43681         0.32897
C          5.18760        21.12782         1.02209
C          6.25971        23.39846         0.34413
C          5.14991        22.65397         0.97510
C          6.19813        24.82057         0.29494
C          4.97048        25.54575         0.56539
C          6.13484        27.70475         0.19656
C          4.95915        26.98544         0.43251
C          6.13482        29.14404        -0.04577
C          4.84116        29.86990        -0.35625
C          8.48710         3.54811         0.87195
C          7.23390         4.18699         0.61528
C          8.51901         6.38843         0.23941
C          7.30631         5.52117        -0.03023
C          8.63815         7.58587        -0.68556
C          7.40636         7.98296        -1.29763
C          8.69320        10.62956        -1.16384
C          7.42978        10.08707        -1.58137
C          8.69430        12.05678        -1.08767
C          7.46714        12.77475        -1.09366
C          8.70519        14.85870        -1.26762
C          7.46995        14.16322        -1.18437
C          8.64482        16.35718        -1.45234
C          7.49892        16.97598        -0.66182
C          8.60488        19.14742        -0.94737
C          7.63731        18.33180        -0.05863
C          8.67000        20.59545        -0.53584
C          7.44988        21.25624        -0.12486
C          8.52024        23.44251        -0.71208
C          7.38874        22.66492        -0.12765
C          8.56284        24.91963        -0.50205
C          7.37172        25.60149         0.03653
C          8.67623        27.73934         0.22093
C          7.37275        26.99107         0.08392
C          8.60627        29.20982        -0.11277
C          7.31420        29.83518        -0.18779
C         10.96790         3.49639         0.80895
C          9.72285         4.18962         0.66993
C         10.96680         6.29688         0.24578
C          9.78494         5.59591         0.32330
C         10.97392         7.74619        -0.02409
C          9.78386         8.39795        -0.59220
C         11.00563        10.61743        -0.48145
C          9.83601         9.85468        -0.84285
C         11.09767        12.01356        -0.67609
C          9.91945        12.75444        -1.02568
C         11.22962        14.83683        -1.42811
C          9.90905        14.16589        -1.18964
C         11.17438        16.33712        -1.27303
C          9.98079        17.04278        -1.23737
C         11.15785        19.22594        -1.15525
C          9.93251        18.45636        -1.08639
C         11.13772        20.65118        -0.79824
C          9.85649        21.29322        -0.68839
C         11.06845        23.48780        -0.63985
C          9.82818        22.74173        -1.06446
C         11.04380        24.92018        -0.66808
C          9.85784        25.64500        -0.56717
C         11.03876        27.80751        -0.53555
C          9.86931        27.06609        -0.41298
C         11.05998        29.23480        -0.29763
C          9.78319        29.91250        -0.23209
C         13.43685         3.46689         0.91867
C         12.19225         4.15653         0.73056
C         13.36368         6.32397         0.73407
C         12.21337         5.60776         0.53944
C         13.29722         7.81775         0.92330
C         12.11127         8.46448         0.25583
C         13.37489        10.70323         0.54388
C         12.10983         9.93799         0.21611
C         13.47652        12.11696         0.09514
C         12.32211        12.76256        -0.41957
C         13.53437        14.89152        -0.37617
C         12.36999        14.16799        -0.66138
C         13.46896        16.39884        -0.27466
C         12.53981        17.00293        -1.33042
C         13.66785        19.21687        -0.69926
C         12.49959        18.51662        -1.22098
C         13.69223        20.73016        -0.76531
C         12.31706        21.37108        -0.64411
C         13.48888        23.55356        -0.11218
C         12.26206        22.79827        -0.48318
C         13.57748        24.96403        -0.55772
C         12.31730        25.61490        -0.90914
C         13.57127        27.83504        -0.68136
C         12.29765        27.15656        -0.91051
C         13.54224        29.25103        -0.35600
C         12.27551        29.91260        -0.24071
C         15.91543         3.52874         1.16321
C         14.64437         4.14642         1.01149
C         15.81946         6.26526         0.37486
C         14.64407         5.65064         1.12253
C         15.81740         7.77190         0.31725
C         14.59718         8.54992         0.64104
C         15.90335        10.66222         0.85747
C         14.63210         9.91200         0.66342
C         15.92538        12.14760         0.65766
C         14.69072        12.82230         0.20139
C         15.99038        14.94141         0.06486
C         14.73851        14.22130        -0.02572
C         16.00887        16.36020        -0.05395
C         14.81676        17.08620        -0.26252
C         16.05573        19.24180        -0.05699
C         14.81646        18.50903        -0.32761
C         16.03896        20.60621         0.11026
C         14.68614        21.27387         0.29409
C         16.03761        23.55624         0.26169
C         14.72533        22.81175         0.29955
C         16.02633        25.01236        -0.14648
C         14.76165        25.68092        -0.57003
C         16.02972        27.92349        -0.95462
C         14.76160        27.11718        -0.72617
C         16.00291        29.24649        -0.21388
C         14.74539        29.89791        -0.06275
C         18.41897         3.61668         1.21246
C         17.11880         4.24455         0.98905
C         18.31141         6.18033        -0.05140
C         17.10279         5.55456         0.45162
C         18.36620         7.76161         0.00064
C         17.14037         8.43031         0.50761
C         18.45314        10.61143         0.57536
C         17.19642         9.90457         0.82555
C         18.47540        12.10177         0.86872
C         17.21456        12.83614         0.46110
C         18.49251        14.92466         0.17630
C         17.22568        14.21030         0.23828
C         18.50681        16.33765         0.06330
C         17.27146        17.08051         0.00835
C         18.53819        19.20096         0.09557
C         17.29189        18.48062         0.02232
C         18.54853        20.61014         0.21928
C         17.27490        21.34151         0.56210
C         18.52195        23.49856         0.07281
C         17.30202        22.80490         0.16266
C         18.56934        24.93151        -0.12895
C         17.32592        25.64276        -0.53479
C         18.59318        27.89321        -0.51844
C         17.32966        27.12506        -0.80385
C         18.46944        29.25136         0.04647
C         17.18097        29.87012         0.14999
C         19.57323         4.17529         0.79776
C         20.82770         6.27386         0.17206
C         19.61861         5.40139        -0.08419
C         20.82564         7.63658         0.22010
C         19.63661         8.44243         0.21508
C         20.87807        10.61240         0.34192
C         19.64276         9.87163         0.42908
C         20.89951        11.99112         0.27984
C         19.73006        12.78062         0.39326
C         20.94279        14.91619         0.02601
C         19.72378        14.19007         0.20260
C         20.95503        16.28490        -0.06070
C         19.74951        17.04332        -0.00839
C         20.97971        19.21826        -0.04206
C         19.76694        18.47609        -0.00084
C         20.97656        20.59183         0.01588
C         19.76390        21.32675         0.16346
C         20.97168        23.50433         0.22792
C         19.76656        22.77396         0.17850
C         20.98350        24.88601         0.14399
C         19.78721        25.61624        -0.07396
C         20.89023        27.81648         0.59734
C         19.86218        27.10505        -0.17338
C         20.79316        29.15995         0.83028
C         19.59262        29.87991         0.56479
O         12.29088        26.38047        -2.15116
O          8.13729        24.33246        -1.82268
O          4.49329         8.61114         0.64321
O         13.83647        23.35379         1.32681
O          4.77644        23.17284         2.28982
O          5.00525        18.14611         2.05574
O          0.80758        11.41620        -2.63594
O         15.80179        11.54794         2.03984
O         17.42030        26.16251        -1.90589
O         11.94938        19.08410        -2.46408
O          7.47545         8.91740        -2.33741
O         18.17679         7.02338        -1.23821
O         16.06559        24.64538         1.26992
O          2.36041        21.62749         0.18418
O          5.00466        20.70821         2.42836
O          6.78156         5.42408        -1.37619
O          2.98801        12.68467        -2.51740
O          2.04019        25.42213         2.55140
O          1.73727        19.45558         3.05263
O         17.28788         8.87441         1.89184
O          2.14588         5.22206         1.58136
O         19.63762        27.69074        -1.50318
O          3.78340        28.83079         1.62153
O         15.58501         6.97496        -0.88720
O         12.36834        10.50155         1.59717
O         12.83412        16.69233         1.00761
H         13.41489        16.35487         1.72163
O          6.15944        12.01845         0.73427
H          5.32316        11.58185         1.00703
O         13.08518         7.99917         2.37723
H         12.87470         8.96234         2.50655
O          7.97025        19.19531        -2.27145
H          8.51208        19.78550        -2.83924
O         14.23406        20.86029         1.60577
H         13.72556        21.62091         1.98230
O          9.90913        22.68233        -2.52741
H          9.42424        23.47965        -2.85503
O         18.50474        12.18225         2.34565
H         17.62067        11.86133         2.65559
O          1.33539         8.33444         1.41821
H          2.09238         7.79451         1.73266
O         19.77831         4.90358        -1.44991
H         19.45114         5.61914        -2.04135
O         11.54462        14.55489        -2.83320
H         12.29268        15.15920        -3.07295
O          4.69993        29.96895        -1.78782
H          4.91988        29.10218        -2.18649
O         14.21365        21.11591        -2.06739
H         13.61163        20.72455        -2.73960
O          8.95988        27.68046         1.67032
H          8.21855        28.12686         2.13291
O         17.18794        21.35264         2.03918
H         16.23241        21.36475         2.27931
O         14.90144         5.93474         2.53469
H         14.31888         6.68382         2.81363
O          3.97201        14.03963         0.96457
H          4.69580        14.53974         1.41681
O         13.12551        16.71857        -2.63550
H         12.73588        17.37932        -3.25455
O          8.29434        18.24246         1.24000
H          7.64177        17.89270         1.88510
O          4.64019        14.67946        -2.62761
H          3.94009        14.08710        -3.00207
O          6.32001        14.79358         0.67487
H          6.46835        13.83595         0.89920
O         15.97925        28.30930        -2.36027
H         16.27987        27.52834        -2.87819
O          8.26483         6.93010         1.57731
H          9.07599         7.39245         1.87884
O          1.43128        13.56899         1.47755
H          2.38550        13.59460         1.73513
O          5.83545        16.91412        -2.31078
H          5.42671        16.18683        -2.83953
O          8.33394        16.55144        -2.86560
H          8.01662        17.48602        -2.96058
H          0.98622         2.58605        -0.12088
H         -1.00075         3.92042        -0.69130
H         -0.99633         6.38197        -0.65890
H         -1.06546         8.35455        -0.06842
H         -1.05642        10.52887        -1.14132
H         -1.27829        12.75618        -1.32397
H         -0.94616        14.73285         0.08650
H         -0.43726        15.66749         1.89904
H         -0.22955        17.81888         3.16018
H         -0.45023        20.85020         3.08309
H         -0.71281        23.18032         2.24703
H         -0.92795        24.94609         1.10368
H         -0.95664        27.31730         0.49699
H          0.16877        29.38729        -0.13711
H          3.51089         2.50131         0.50910
H          2.21106        30.67435        -0.63918
H          5.91298         2.54967         1.06003
H          4.89559        30.92049         0.02867
H          8.48689         2.49626         1.19694
H          7.27610        30.91117        -0.41946
H         10.95140         2.41685         1.02215
H          9.76305        31.00846        -0.33603
H         13.42333         2.36737         0.97675
H         12.27314        30.99732        -0.05471
H         15.97003         2.44361         1.34014
H         14.72723        30.92649         0.32910
H         18.43674         2.67023         1.77382
H         17.13510        30.87969         0.58803
H         20.53007         3.67038         0.99863
H         21.79411         5.74887         0.20865
H         21.79325         8.14027         0.35993
H         21.82607        10.07030         0.22994
H         21.86689        12.47683         0.08923
H         21.90019        14.37959         0.00669
H         21.92167        16.79638        -0.15554
H         21.94267        18.69900        -0.13260
H         21.93633        21.12075        -0.04790
H         21.93001        22.98204         0.34497
H         21.94502        25.41468         0.18391
H         21.74669        27.25739         0.99945
H         21.60535        29.67856         1.35918
H         19.50718        30.91515         0.92572
