         300
 CSIRO Nanostructure Databank - Neutral Graphene Oxide Data Set
C         30.51617        31.40189        -0.98082
C         30.40323        32.61372        -0.69798
C         30.10258        35.86052         0.15328
C         30.28155        37.07996         0.18829
C         30.71342        39.80819        -1.35256
C         30.85431        40.80520        -2.06739
C         32.72800        28.63386         0.09415
C         31.67777        29.13441        -0.38154
C         32.58878        31.34416         0.25020
C         31.20627        30.50856         0.01534
C         32.49063        32.82930         0.44298
C         31.19584        33.51575         0.07157
C         32.77714        35.92716         0.95442
C         30.88889        34.74100         0.59270
C         32.61787        37.41476         0.90336
C         31.28526        38.09006         0.50513
C         32.56913        40.35819         0.07338
C         31.18031        39.54567         0.03574
C         32.57206        41.73494        -0.63976
C         32.05024        41.69059        -2.14307
C         32.90461        43.95034        -2.13255
C         32.03753        43.15439        -2.51498
C         35.30321        27.32848         1.71279
C         34.92157        28.73410         1.51979
C         33.85820        29.24458         0.67078
C         35.07734        31.39346         0.17411
C         33.77851        30.70378         0.53865
C         35.05721        32.92582         0.12162
C         33.78633        33.67896         0.46278
C         35.05474        35.91874         0.02185
C         33.80398        35.19076         0.40766
C         35.02964        37.42324         0.04004
C         33.81555        38.18828         0.43656
C         35.24443        40.36867         0.42858
C         33.85173        39.69572         0.48468
C         35.19319        41.82918         0.00140
C         33.94824        42.44341        -0.56340
C         35.18904        44.65662        -0.92918
C         34.25547        43.63943        -1.55816
C         35.58915        45.94673        -1.49943
C         37.65418        27.12169         1.08192
C         36.36628        26.70440         1.40997
C         37.68929        28.62748         1.31152
C         36.48677        29.27446         0.55592
C         37.56087        31.50667         0.68479
C         36.40348        30.78444         0.59464
C         37.57319        32.99562         0.65540
C         36.35210        33.68851         0.15032
C         37.66492        35.91467         0.26457
C         36.37628        35.19955         0.06015
C         37.57381        37.42878         0.43711
C         36.35646        38.11535        -0.19472
C         37.72810        40.35483        -0.38806
C         36.37046        39.61042        -0.27464
C         37.69144        41.85996        -0.11977
C         36.50979        42.53858        -0.18092
C         37.75852        44.78785        -0.25558
C         36.44658        44.02841        -0.31616
C         37.95733        46.13414        -1.01994
C         36.56364        46.66871        -1.23000
C         40.26201        24.55508         1.40559
C         39.18871        25.08434         1.10736
C         40.16398        27.20652         0.67668
C         38.76484        26.36504         0.42316
C         40.06678        28.63283         0.07139
C         38.98917        29.37130         0.88831
C         40.12786        31.63987         0.41163
C         38.90374        30.86088         0.77807
C         40.13692        33.00171         0.53117
C         38.86351        33.76253         0.67384
C         40.14508        35.97229         0.46088
C         38.83951        35.23849         0.41524
C         40.08800        37.44158         0.84524
C         38.91425        38.12162         0.05588
C         40.16469        40.36690         0.40033
C         38.87111        39.63300         0.32031
C         40.26245        41.85467         0.31152
C         39.04159        42.55270        -0.29794
C         40.39904        44.72450        -0.13813
C         39.02524        44.03939        -0.00354
C         40.28417        46.23697         0.08068
C         39.02322        46.97914        -0.35076
C         40.48849        48.95738        -0.67065
C         39.43436        48.31614        -0.79358
C         42.81190        24.42205         0.76938
C         41.63720        25.15468         1.35666
C         42.62226        27.12264        -0.34645
C         41.38335        26.34758         0.21390
C         42.61367        28.65251        -0.50862
C         41.42742        29.36957         0.13269
C         42.61603        31.66446        -0.10682
C         41.41062        30.86824         0.30270
C         42.71275        33.04190         0.49015
C         41.41610        33.74278         0.73968
C         42.71766        35.94972         1.09165
C         41.44233        35.24234         0.64520
C         42.70061        37.48437         1.18921
C         41.43770        38.10450         0.54156
C         42.69307        40.32405         0.22954
C         41.41087        39.57234         0.25214
C         42.76064        41.81800         0.51527
C         41.41951        42.52501         0.62357
C         42.70898        44.76164         1.12461
C         41.33532        44.04148         0.92169
C         42.74752        46.28375         0.92164
C         41.59487        46.99088         0.25233
C         43.04118        48.91779        -0.02854
C         41.83680        48.29100        -0.65487
C         43.77493        25.10158         0.36052
C         45.00882        26.70036        -1.10379
C         43.90758        26.30327        -0.40285
C         44.98521        28.96439        -1.32899
C         43.87254        29.46625        -0.71697
C         45.16769        31.59944        -0.18502
C         43.85037        30.95379        -0.52570
C         45.22307        33.10024        -0.00557
C         43.96938        33.85524         0.28989
C         45.32131        36.01387         0.71716
C         44.03328        35.24119         0.90186
C         45.25751        37.38126         0.51424
C         43.96630        38.09509         0.57958
C         45.61571        40.58931         0.22575
C         43.82992        39.37924         0.11816
C         45.40129        41.82324         0.76573
C         44.03389        42.42278         1.17361
C         45.39918        44.74137         1.39303
C         44.01783        43.98959         1.25786
C         45.31940        46.20690         0.83372
C         44.12011        47.01044         1.21786
C         43.97176        48.31047         0.49854
C         47.27137        27.38244        -0.99012
C         46.41267        26.49144        -0.86829
C         47.58264        28.76100        -1.11650
C         46.35097        29.65586        -1.41468
C         47.81358        31.49854        -0.19430
C         46.42938        30.84237        -0.44891
C         47.70253        33.04542        -0.45121
C         46.55406        33.64702         0.48405
C         47.92823        35.90681         0.49135
C         46.60069        35.20358         0.66119
C         48.04538        37.41026         0.71466
C         46.49384        38.20147        -0.00169
C         47.98335        40.30646         1.09175
C         46.70862        39.67112         0.60998
C         47.96623        41.82533         1.45047
C         46.71207        42.55478         0.93531
C         47.97678        44.84033         1.05933
C         46.68731        44.03644         0.94639
C         47.80306        46.14730         0.67755
C         46.57473        46.60428         0.61539
C         51.45618        28.77780        -3.23349
C         48.81717        29.34425        -0.99660
C         50.23492        31.60004        -1.14628
C         48.92234        30.84911        -1.04062
C         50.34539        32.97111        -0.44124
C         49.06190        33.73449        -0.21628
C         50.41565        35.97239        -0.10097
C         49.03556        35.26569        -0.37621
C         50.37820        37.47667        -0.51464
C         49.16060        38.21114         0.06276
C         50.54924        40.32826         0.62392
C         49.22957        39.63338         0.54534
C         50.55728        41.83279         0.74107
C         49.28958        42.59785         1.16099
C         50.51922        44.59239         0.52351
C         49.26685        44.12971         1.13880
C         51.43719        29.80802        -2.50227
C         52.59962        31.71902        -1.39480
C         51.46450        30.90848        -1.69553
C         52.71860        32.91422        -1.09147
C         51.73714        33.76741        -0.33902
C         52.78310        36.08538        -0.70169
C         51.58600        35.18174        -0.88694
C         52.73935        37.31097        -0.53756
C         51.69681        38.24202        -0.22499
C         52.83608        40.49375         0.06631
C         51.74674        39.55974         0.10481
C         52.93863        41.72897         0.13749
C         51.71526        42.59278        -0.07614
C         51.60480        44.01837         0.35489
O         42.18641        33.14611         1.83524
O         35.09868        30.95401        -1.34097
O         48.86287        39.29638        -0.85737
O         38.27305        44.58049         1.09595
O         41.49446        38.55812        -0.82034
O         39.29741        46.73294         1.03024
O         41.78987        47.09285         1.68833
O         46.63361        38.08584        -1.27357
O         39.34101        30.18159         2.02762
O         39.34869        40.02600         1.63009
O         41.74013        29.95651         1.41421
O         46.79585        43.32115        -0.33190
O         44.84183        27.75445        -2.03007
O         38.11862        40.27805        -1.75888
O         41.01018        35.68261        -0.68029
O         42.99184        31.61413        -1.51663
O         42.23152        27.76764        -1.60465
O         49.57913        43.41175         2.35146
O         35.39035        44.66703         0.48417
O         34.27357        42.62436         0.83127
O         36.25185        38.79363        -1.47030
O         43.23017        44.38808         2.42822
O         33.01011        40.36648         1.46307
O         31.73686        38.00437         1.88674
O         35.73001        35.56388        -1.21521
O         33.16174        33.18667         1.68555
O         44.53733        33.82367        -1.05424
O         49.75721        33.11814         0.89217
O         44.79581        39.94090        -0.69187
O         38.09936        33.50664         1.92472
O         42.82796        41.33536        -0.84632
O         31.74648        35.23087         1.61422
O         35.78835        33.22299        -1.10947
O         47.58813        35.33846         1.78179
O         47.05732        39.66761         2.01333
O         50.92493        40.99612         1.87037
O         45.75593        30.71893         0.83598
O         43.40695        35.34609         2.22456
O         34.03378        37.82268        -0.97316
O         49.24408        31.55841        -2.24351
O         33.04676        41.07577        -2.93961
H         32.67550        40.85296        -3.81893
O         35.02440        43.07990        -2.62290
H         34.48714        42.38402        -3.07341
O         42.00794        25.68039         2.60660
H         42.16900        24.94211         3.23010
O         35.70071        40.37017         1.80263
H         35.09668        40.95973         2.30723
O         52.13541        33.82043         1.01391
H         52.14021        32.92008         1.39942
O         48.20655        31.16631         1.13544
H         47.41550        31.29146         1.71662
O         36.41716        28.76142        -0.70288
H         35.86006        29.33448        -1.28795
O         37.49284        28.85581         2.71887
H         38.36442        28.74662         3.16202
O         39.33059        42.51489        -1.72805
H         38.99618        41.62377        -2.06905
O         45.63062        44.87619         2.79808
H         44.95976        45.50876         3.15792
O         40.65805        44.16124         2.17442
H         41.31071        44.01106         2.89300
O         42.16025        47.83722        -1.94223
H         42.34709        48.60278        -2.52280
O         33.97852        31.54652        -2.00766
H         34.36718        32.37457        -2.39148
O         44.17373        47.19217         2.62908
H         43.29645        47.54853         2.90375
O         30.45411        30.45496         1.18656
H         30.80764        29.76527         1.78408
O         37.26473        37.59382         1.84335
H         38.08644        37.38946         2.36205
O         39.09647        37.89626        -1.33524
H         38.70504        38.67840        -1.82860
O         50.23245        37.52346        -1.95525
H         49.85063        38.41029        -2.17546
O         40.19308        27.48646         2.07620
H         40.69611        26.80085         2.57793
O         39.62499        28.62270        -1.28343
H         40.31489        28.16710        -1.82418
O         38.43673        26.17744        -0.92187
H         39.17641        25.69630        -1.35994
O         47.26156        33.17399        -1.79507
H         47.52175        34.05447        -2.15448
O         48.63047        35.45953        -1.74010
H         48.90404        36.36013        -2.05442
O         30.30074        40.18571         0.94179
H         30.64024        40.03110         1.84949
O         46.64924        33.09058         1.80324
H         47.36605        33.56370         2.28559
O         40.98435        44.55694        -1.43053
H         40.56717        43.76991        -1.87013
O         34.99525        29.49608         2.67345
H         35.81681        29.25359         3.16894
O         50.63454        35.98635         1.30133
H         51.02616        35.12573         1.58960
O         31.65801        42.57002         0.06536
H         32.02705        42.72794         0.96095
O         42.61778        37.84116         2.58195
H         43.07219        37.13197         3.09290
O         51.26837        35.04774        -2.24589
H         51.17261        35.94132        -2.64666
O         46.49688        30.20468        -2.73223
H         46.34182        29.49546        -3.39065
O         38.47142        45.75384        -2.30192
H         38.57876        46.55538        -2.85514
O         40.95846        25.61135        -0.94864
H         41.69949        25.03266        -1.23218
O         49.84738        28.56535        -0.60190
H         50.72158        28.97725        -0.75494
O         39.85091        37.49335         2.26333
H         39.86901        38.44821         2.52873
O         43.91296        41.96058         2.54202
H         44.54995        42.45525         3.10225
O         47.76907        41.87336         2.87383
H         48.61490        41.66518         3.32433
O         48.15791        37.65343         2.06473
H         47.73834        36.90445         2.55778
O         51.34738        42.49543        -1.43183
H         51.95420        43.03814        -1.97629
