         261
 CSIRO Nanostructure Databank - Neutral Graphene Oxide Data Set
C        -11.39950         0.54861         0.34517
C        -10.10295         1.26941         0.50895
C         -8.86336         0.49540         0.14811
C         -7.54922         1.23901         0.13680
C         -6.40532         0.60997        -0.57518
C         -5.09349         1.37952        -0.72284
C         -3.78833         0.63620        -0.66624
C         -2.47689         1.39303        -0.81805
C         -1.19580         0.63811        -0.55049
C          0.12312         1.36477        -0.66063
C          1.40079         0.69285        -0.16566
C          2.58051         1.53480         0.25332
C          3.81291         0.90041         0.82175
C          5.12944         1.65154         0.76531
C          6.41061         0.85474         1.00382
C          7.72309         1.56376         0.77379
C          8.95432         0.71787         0.52783
C         10.18865         1.40626         0.00426
C         11.22940         0.56401        -0.62585
C         -9.95235         2.75134         0.54470
C         -8.76278         3.42109         0.59132
C         -7.46465         2.68512         0.57492
C         -6.09073         3.41077         0.56674
C         -5.08440         2.87580        -0.51311
C         -3.78989         3.63691        -0.73034
C         -2.49315         2.89776        -1.02157
C         -1.16773         3.65477        -0.98101
C          0.12358         2.87522        -0.85121
C          1.34138         3.61141        -0.33889
C          2.65169         2.87799        -0.40751
C          3.94909         3.60000        -0.55963
C          5.17426         3.01588         0.12900
C          6.50175         3.59772        -0.27673
C          7.75215         2.97715         0.27425
C          9.02833         3.60607        -0.17773
C         10.15789         2.86812        -0.26666
C         -8.78025         4.95381         0.63533
C         -7.46804         5.66982         0.27144
C         -6.16614         4.92131         0.37583
C         -4.81653         5.55683         0.65011
C         -3.60948         4.95771        -0.00822
C         -2.44569         5.85983        -0.36891
C         -1.16537         5.16983        -0.78913
C          0.12192         5.89609        -0.53732
C          1.35189         5.08824        -0.15816
C          2.67986         5.83917        -0.23575
C          3.93820         5.11054        -0.72088
C          5.28615         5.84285        -0.82556
C          6.55608         4.98981        -0.81122
C          7.87409         5.79967        -0.92506
C          9.01891         5.12740        -0.12621
C         -7.50878         7.17409         0.10308
C         -6.58300         8.03626         0.60485
C         -4.70692         6.94816         1.12368
C         -3.56223         7.65196         1.08212
C         -2.40480         7.23594         0.25120
C         -1.13457         8.04239         0.34553
C          0.11001         7.34786        -0.11476
C          1.10915         8.22133        -0.82183
C          2.73670         6.97210         0.74278
C          3.20164         8.38495         0.89305
C          5.51458         6.85614         0.29684
C          6.55359         7.83565        -0.09376
C          7.70133         7.28266        -0.58375
C         -6.24765         9.33645         0.00285
C         -5.06714        10.01630        -0.13951
C         -3.71255         9.75589         0.36680
C         -2.53213        10.09724        -0.22352
C         -1.22629         9.60458         0.40023
C          0.05895        10.29910        -0.06315
C          1.20350         9.65055        -0.40868
C          2.57555        10.17912        -0.57392
C          3.62582         9.40884        -0.13327
C          5.01205         9.87654        -0.25405
C          6.22899         9.25872        -0.16562
C        -11.42904        -0.80175         0.27992
C        -10.23736        -1.63521        -0.06424
C         -8.95920        -0.89037        -0.43244
C         -7.67589        -1.67610        -0.59381
C         -6.39603        -0.88614        -0.69493
C         -5.12319        -1.54025        -0.18607
C         -3.86080        -0.72931        -0.03594
C         -2.58018        -1.38198         0.44603
C         -1.26871        -0.61366         0.29632
C         -0.00141        -1.30988         0.68730
C          1.34447        -0.70292         0.35173
C          2.54592        -1.30863         1.09450
C          3.85462        -0.59705         0.71499
C          5.15119        -1.34412         0.72862
C          6.42099        -0.64443         1.14745
C          7.76248        -1.45742         1.18134
C          8.75424        -0.76395         0.22020
C         10.05611        -1.51204         0.01651
C         11.19804        -0.78609        -0.50580
C        -10.09277        -3.02778         0.30016
C         -8.97636        -3.91850        -0.20086
C         -7.65503        -3.16819        -0.50692
C         -6.32107        -3.85942        -0.22272
C         -5.07617        -3.04456        -0.01614
C         -3.91442        -3.64841         0.75650
C         -2.62272        -2.83604         0.83707
C         -1.34031        -3.59548         1.01217
C         -0.03184        -2.79286         0.98456
C          1.25909        -3.53507         0.84222
C          2.53955        -2.76726         0.63339
C          3.82514        -3.50772         0.55906
C          5.10990        -2.83587         0.93222
C          6.39125        -3.61031         0.90125
C          7.59425        -2.80198         0.44021
C          8.85146        -3.63637         0.31768
C         10.06001        -2.88288         0.08543
C         -8.61705        -5.14266         0.67381
C         -7.62965        -6.00653        -0.06034
C         -6.51333        -5.17378         0.51047
C         -5.27202        -5.94989         1.01839
C         -3.93992        -5.13798         1.02864
C         -2.63893        -5.93099         0.96712
C         -1.35125        -5.09935         0.88818
C         -0.11178        -5.72144         0.29910
C          1.22550        -4.95841         0.35546
C          2.52367        -5.68627         0.15770
C          3.84594        -4.98010         0.29734
C          5.12148        -5.72731         0.20635
C          6.39603        -5.17683         0.88366
C          7.62039        -5.82009         0.23290
C          8.81984        -5.00593         0.17185
C         -7.49410        -7.24141        -0.56247
C         -6.05458        -7.62777        -0.85810
C         -5.15008        -7.36726         0.35272
C         -3.89230        -8.19235         0.45562
C         -2.60278        -7.42573         0.71300
C         -1.45827        -7.93065        -0.20150
C         -0.12196        -7.16515        -0.11181
C          1.17737        -7.91784         0.12623
C          2.47752        -7.17614         0.35382
C          3.78569        -7.93207         0.38544
C          5.04969        -7.21635        -0.00270
C          6.33113        -7.95181        -0.18810
C          7.59160        -7.14773        -0.10948
C         -5.86234        -8.97529        -1.50745
C         -4.79467        -9.76484        -1.32563
C         -3.82476        -9.62079        -0.16849
C         -2.43884       -10.15042        -0.44552
C         -1.30165        -9.43809        -0.30505
C          0.02925       -10.03256        -0.76254
C          1.27869        -9.36235        -0.21038
C          2.45988       -10.03686        -0.14859
C          3.76465        -9.42523         0.21913
C          5.07056       -10.09423        -0.07331
C          6.25261        -9.43884        -0.10731
O         -3.61780         8.97876         1.54771
O          7.83563         2.68869         1.70391
O          5.05512         2.87580         1.56591
O          7.98246        -0.92014        -1.03201
O          6.34257        -5.65655         2.18038
O          2.82397         1.50096         1.69119
O         -4.95403        -8.28533         1.45756
O         -4.83512        -0.80769         1.05510
O         -7.72222        -2.53654        -1.79937
O         -5.82916         7.55917         1.70175
O         -4.12327        -4.15863         2.09841
O          5.49735        -7.52580        -1.35865
O         -0.34045         3.31343        -2.13684
O         -2.81047         7.02109        -1.16267
O          1.70009        -0.45260        -1.02570
O          4.56071        -0.90824        -0.52472
O         -0.41644         5.78946        -1.87539
O         -9.35480         0.52073         1.52859
O         -4.84867         3.64089        -1.72242
O          6.31460         0.19552         2.32228
O          3.37541         2.86382        -1.67319
O          1.83054        -5.10001        -0.96787
O          1.64211        -7.57279         1.48188
O          3.18346        -2.90840        -0.63499
O          6.54785         3.85002        -1.71576
O          3.05568         8.82441         2.04818
O          1.70066         7.82793        -1.81878
O         -6.77941         5.17267        -0.92831
O         -0.24698        -6.11340        -1.10475
O         -2.48192         2.00950        -2.14114
O          0.75438        -3.20388         2.16321
O          5.79010        -3.17401         2.16237
O         -1.25901        -4.45688         2.18423
O          3.03972         5.78474        -1.63946
O         -7.50797        -4.74815         1.57558
O          7.32661        -2.27921        -0.93153
O          4.93632         6.80722         1.37159
O         -7.28381         1.58538         1.52805
O         -2.41685        -6.93020         2.04645
O         -5.32720        -3.77209        -1.26776
O          3.85644        -8.78798         1.55321
O         -1.97916        -7.72308        -1.50313
O         -0.40778         0.58249        -1.76416
O         -2.74542        -1.78942         1.83420
O         -0.13662         7.57594         1.30706
O         -4.48739         0.83530        -1.91796
O         -0.68647        -0.42733         1.62821
O         10.02646         1.03014         1.44086
O         -3.80798         4.77496         1.41578
O         -9.86844        -1.18754        -1.49846
O          4.65439        -5.07367        -0.97029
O          1.14259         4.22048         0.98636
O         -6.62305        -0.04310        -1.86331
O          8.81968         5.49428         1.24285
H          9.19139         4.79949         1.82616
O         -1.26333         9.94998         1.80055
H         -0.60820         9.38647         2.26731
O         -5.56563        -6.16931         2.39938
H         -4.80060        -6.62620         2.81073
O         -5.49329         3.16790         1.84298
H         -5.83691         2.31252         2.19687
O         -5.53570        -6.64290        -1.80365
H         -5.92150        -6.81851        -2.68710
O          5.34517         6.57826        -2.06779
H          4.43953         6.58811        -2.46225
O         -9.47032        -4.44653        -1.46022
H         -9.33822        -3.73250        -2.12897
O          0.05220       -11.43307        -0.50692
H          0.03782       -11.57388         0.46200
O          8.23512        -1.59371         2.49498
H          7.76667        -0.94313         3.06544
O         -4.32270       -10.57398         0.81246
H         -5.00788       -10.10588         1.34648
O          2.21089         6.56036         1.88952
H          2.32778         7.32097         2.53355
O         -9.16154         5.36512         1.95562
H         -8.55589         4.95557         2.60733
O          2.43829        -1.18111         2.50627
H          1.69505        -1.74871         2.82637
O          8.26670         5.77879        -2.30645
H          7.46775         5.95955        -2.84810
H         12.03789        -1.38405        -0.89072
H         12.08190         1.06334        -1.10842
H         11.10933         3.35438        -0.53649
H         10.00307         5.52669        -0.50059
H          8.52032         7.93993        -0.91784
H          7.10186         9.90887        -0.34370
H          5.06866        10.94942        -0.50900
H          2.74876        11.12848        -1.10606
H          0.09906        11.37745         0.16233
H         -2.50807        10.68068        -1.15408
H         -5.11947        10.88919        -0.81257
H         -7.08304         9.74896        -0.58927
H         -8.15609         7.51046        -0.72309
H         -9.58327         5.32253        -0.05362
H        -10.88011         3.34476         0.50943
H        -12.33491         1.11463         0.46794
H        -12.39850        -1.32251         0.30551
H        -10.91537        -3.50321         0.85667
H         -9.47911        -5.60698         1.20497
H         -8.34229        -7.90142        -0.79396
H         -6.58507        -9.22524        -2.30225
H         -4.70808       -10.68959        -1.91746
H         -2.37775       -11.23090        -0.65125
H          0.05992        -9.90883        -1.88124
H          2.46482       -11.09486        -0.45817
H          5.06438       -11.19413        -0.13039
H          7.18680       -10.01059        -0.21793
H          8.51530        -7.62559        -0.47605
H          9.76697        -5.52282        -0.05658
H         10.99265        -3.43361        -0.11221
