         470
 CSIRO Nanostructure Databank - Neutral Graphene Oxide Data Set
C         38.20652        50.61720        -2.05483
C         37.01623        51.31481        -2.21753
C         38.10125        53.33610        -1.45717
C         36.96333        52.68129        -1.91586
C         40.75592        49.16527        -1.67790
C         40.62876        50.52710        -1.46214
C         39.37708        51.26138        -1.59590
C         40.49906        53.34266        -0.74691
C         39.32498        52.65440        -1.29209
C         40.51798        54.78050        -0.58238
C         43.05524        49.02899        -0.79200
C         41.93427        48.44054        -1.35283
C         43.10013        50.49703        -0.71643
C         41.82852        51.28009        -1.07343
C         42.78453        53.23733         0.21688
C         41.67257        52.63652        -0.52626
C         42.76126        54.75444         0.43417
C         41.62067        55.45814        -0.16212
C         45.44472        46.17162        -0.22669
C         44.32232        46.88571        -0.60698
C         45.27455        48.89692         0.36837
C         44.21313        48.26654        -0.33266
C         45.12780        50.31033         0.76483
C         44.09777        51.14799         0.15313
C         45.21901        53.21677         0.92088
C         44.05771        52.50544         0.41727
C         45.23024        54.67189         0.91407
C         44.06616        55.42143         0.67476
C         45.28074        57.51736         0.96233
C         44.11127        56.84324         0.71480
C         47.83599        44.65274         0.49912
C         47.71971        46.03037         0.77844
C         46.52994        46.79224         0.42918
C         47.59425        48.87394         1.31615
C         46.44344        48.18071         0.73993
C         47.57413        50.25111         1.51354
C         46.34339        51.04459         1.35932
C         47.64388        53.20467         1.45670
C         46.39031        52.51274         1.23149
C         47.65511        54.64630         1.41735
C         46.48045        55.35956         1.16658
C         47.72488        57.51710         1.22973
C         46.50674        56.81629         1.16426
C         47.80117        58.96935         1.22143
C         50.09190        44.49522         1.43065
C         48.99678        43.92202         0.77534
C         49.97368        45.90458         1.81843
C         48.81648        46.70227         1.38555
C         50.04863        48.78264         1.80492
C         48.81453        48.10901         1.56390
C         50.08517        50.25090         1.97238
C         48.77452        51.00549         1.90556
C         50.12648        53.12052         1.83425
C         48.80704        52.46696         1.71151
C         50.17047        54.61290         1.84589
C         48.86595        55.41482         1.95370
C         50.16196        57.44276         1.06617
C         48.97894        56.79903         1.35344
C         50.03250        58.72242         0.24751
C         48.94510        59.58118         0.84259
C         52.52143        41.65123         1.66292
C         51.34150        42.35874         1.58679
C         52.54885        44.44987         1.97063
C         51.31561        43.77344         1.68817
C         52.57707        45.90467         2.00531
C         51.30589        46.65854         2.09984
C         52.51367        48.81984         1.78938
C         51.27806        48.10409         1.87952
C         52.56618        50.20378         1.56919
C         51.34362        50.97732         1.66385
C         52.66629        53.09819         1.37359
C         51.35631        52.33847         1.53363
C         52.36195        54.39853         0.57497
C         51.44529        55.29487         1.39891
C         52.76437        57.48536         0.72203
C         51.48213        56.78194         1.20469
C         52.51707        58.75803        -0.05968
C         51.32985        59.42009        -0.08539
C         52.32634        61.37402        -1.22059
C         51.27448        60.77835        -0.62546
C         55.05271        40.21440         1.34093
C         54.99921        41.54535         1.79231
C         53.77206        42.30179         1.85445
C         55.02669        44.43923         2.32928
C         53.75832        43.71597         2.07011
C         55.06315        45.94086         2.17575
C         53.75906        46.61126         1.98183
C         55.07631        48.76425         1.57360
C         53.75821        48.07634         1.98683
C         54.93885        50.07560         0.94586
C         53.78250        50.83734         1.12532
C         54.82296        52.82188         0.09381
C         53.76863        52.24822         0.76025
C         54.81901        54.25567        -0.31082
C         53.59494        55.09594        -0.02223
C         54.91638        57.12321        -0.50096
C         53.76809        56.56618         0.02180
C         54.97804        58.59600        -0.73771
C         53.73389        59.41112        -0.59192
C         54.87446        61.36928        -1.60299
C         53.57012        60.58901        -1.55325
C         54.93141        62.76888        -1.63685
C         57.51725        40.09086         1.46301
C         56.24760        39.50979         1.19850
C         57.55472        41.49963         1.80043
C         56.28745        42.18920         2.10367
C         57.55025        44.39857         1.81405
C         56.33036        43.69797         2.26005
C         57.52035        45.78667         1.50859
C         56.30828        46.59079         1.67945
C         57.40559        48.57982         0.69837
C         56.25974        47.91899         1.28778
C         57.32528        49.84572         0.16249
C         56.03323        50.55795         0.10601
C         57.25185        52.71335        -0.67739
C         55.98274        52.01710        -0.35351
C         57.24397        54.11382        -0.87047
C         56.09671        54.92001        -0.65200
C         57.27295        57.01279        -1.27105
C         56.08987        56.33389        -0.86858
C         57.31800        58.40990        -1.55082
C         55.99380        59.11656        -1.77022
C         57.29804        61.30304        -1.88406
C         56.07446        60.63516        -1.70297
C         57.35381        62.71674        -1.93741
C         56.14611        63.42951        -1.79097
C         59.97315        37.50874         0.30953
C         58.82730        38.22915         0.45699
C         59.98328        39.97544         1.84806
C         58.72903        39.38438         1.30666
C         60.05120        41.51324         2.05871
C         58.73806        42.21185         1.80664
C         59.94369        44.28636         1.20126
C         58.75081        43.65322         1.66471
C         59.91950        45.67163         0.89497
C         58.71599        46.40877         1.07328
C         59.90352        48.47556         0.17729
C         58.69873        47.86204         0.81149
C         59.76024        49.74166        -0.61290
C         58.46169        50.48388        -0.55534
C         59.69430        52.60053        -0.98902
C         58.46959        51.96209        -0.78078
C         59.77733        54.01406        -1.52342
C         58.43590        54.73865        -1.49129
C         59.82840        56.91581        -1.74931
C         58.46688        56.22894        -1.64484
C         59.76901        58.40095        -1.50321
C         58.52746        59.07323        -1.77464
C         59.85644        61.22937        -2.23948
C         58.52981        60.51742        -2.12625
C         59.87713        62.71264        -2.09343
C         58.64035        63.41309        -2.06792
C         59.87051        65.51787        -2.06478
C         58.67440        64.82223        -2.09676
C         62.38509        35.67304         0.54285
C         62.39901        36.99505         0.89739
C         61.09886        37.66399         1.30814
C         62.54084        39.90284         1.52031
C         61.23936        39.15123         1.72729
C         62.48723        41.41546         1.31634
C         61.21310        42.16332         1.34344
C         62.36465        44.17959         0.52505
C         61.16638        43.50527         1.00417
C         62.34329        45.54555         0.21181
C         61.11112        46.31268         0.33756
C         62.23659        48.31804        -0.67499
C         61.07266        47.62639        -0.09077
C         62.22050        49.79952        -0.75644
C         61.03055        50.48063        -0.81698
C         62.12982        52.66199        -0.71030
C         60.96373        51.92192        -0.89650
C         62.02941        54.08379        -0.34591
C         60.87465        54.84217        -0.85325
C         62.11270        56.96817        -0.58956
C         60.92158        56.20641        -0.96723
C         62.14060        58.42273        -0.78865
C         60.95855        59.09154        -1.30194
C         62.37664        61.20882        -1.70682
C         61.13565        60.38407        -2.07384
C         62.38845        62.69509        -1.91056
C         61.09968        63.42571        -2.04980
C         62.33586        65.60643        -1.75284
C         61.10386        64.84149        -1.99053
C         62.36810        67.01087        -1.86193
C         64.80534        35.54313         0.13231
C         63.56280        34.95572         0.15536
C         64.94621        36.91279         0.65668
C         63.69123        37.67583         1.07712
C         64.85044        39.80462         0.54757
C         63.73124        39.15725         1.01639
C         64.75054        41.24448         0.20312
C         63.61811        42.05687         0.63215
C         64.79627        44.11477        -0.04064
C         63.58010        43.42222         0.33606
C         64.77354        45.53657        -0.19225
C         63.56594        46.21087        -0.15913
C         64.80897        48.40834        -0.48495
C         63.55863        47.61508        -0.62918
C         64.76352        49.82573        -0.51107
C         63.50778        50.50174        -0.88899
C         64.66271        52.75297        -0.33261
C         63.44950        52.04159        -0.79421
C         64.61025        54.15029        -0.09460
C         63.30750        54.84030        -0.05189
C         64.43567        57.02370         0.31544
C         63.26607        56.30046        -0.21239
C         64.36182        58.54629         0.30949
C         63.27150        59.16696        -0.46070
C         64.66633        61.33050        -0.48767
C         63.28587        60.67721        -0.59309
C         64.78687        62.77178        -0.85002
C         63.61106        63.48204        -1.47640
C         64.65286        65.68185        -0.91789
C         63.51397        64.94858        -1.33863
C         64.65370        67.10299        -1.00871
C         63.50667        67.73376        -1.52473
C         67.09860        33.04305        -1.65546
C         65.95297        33.62172        -0.95251
C         67.26971        35.58133        -0.31962
C         66.01081        34.89064        -0.39244
C         67.33436        36.97403        -0.05312
C         66.13757        37.68857         0.27478
C         67.30553        39.78516        -0.07274
C         66.09772        39.09127         0.24178
C         67.28919        41.22437        -0.34826
C         66.00482        41.98128        -0.26973
C         67.26430        44.17445        -0.07320
C         66.01985        43.43545        -0.16968
C         67.27146        45.54375        -0.10836
C         66.04192        46.25067        -0.61919
C         67.23554        48.46983        -0.17708
C         66.02037        47.73422        -0.33466
C         67.19646        49.89956        -0.13188
C         65.93774        50.59050        -0.28935
C         67.05936        52.77618         0.21929
C         65.86248        52.02218        -0.18603
C         67.03815        54.23757         0.05732
C         65.81635        54.92084         0.04402
C         66.92376        57.08541         0.52602
C         65.76517        56.35993         0.30466
C         66.92121        58.53218         0.87219
C         65.59934        59.32536         0.64820
C         66.86100        61.52117         0.68870
C         65.67299        60.74771         0.23767
C         67.00130        62.95718         0.33474
C         65.85756        63.60886        -0.25545
C         67.05682        65.76305        -0.21561
C         65.81676        64.98654        -0.40733
C         66.96634        67.23587        -0.05798
C         65.79761        67.88407        -0.52536
C         66.77989        70.00935         0.12570
C         65.74129        69.29013        -0.44721
C         69.68848        31.48609        -1.96377
C         69.70844        32.83200        -1.57214
C         68.45514        33.63069        -1.42231
C         69.79415        35.58761        -0.62735
C         68.53956        34.77215        -0.41950
C         69.81656        36.97418        -0.34708
C         68.57287        37.68882        -0.10724
C         69.80988        39.85509        -0.05243
C         68.55775        39.11120        -0.07614
C         69.84354        41.23906        -0.05064
C         68.57989        41.98006        -0.25501
C         69.83317        44.14359         0.12296
C         68.52889        43.41454         0.14105
C         69.76610        45.61239        -0.26384
C         68.50987        46.31098         0.29769
C         69.67631        48.51945         0.00498
C         68.48470        47.78845        -0.05577
C         69.64493        49.93961         0.06902
C         68.41893        50.61203         0.04686
C         69.64509        52.84924         0.18951
C         68.38744        52.06750         0.32311
C         69.60248        54.26059         0.12556
C         68.30106        54.95733        -0.02419
C         69.49810        57.10729         0.66684
C         68.23095        56.46493         0.21874
C         69.46337        58.61681         0.88249
C         68.17356        59.29215         0.77685
C         69.43441        61.46961         0.95077
C         68.16039        60.73330         0.96514
C         69.33545        62.92324         1.21120
C         68.16348        63.64106         0.64315
C         69.53052        65.91484         0.59921
C         68.32100        65.04523         0.20070
C         69.05971        67.17736         1.36419
C         67.99364        67.95719         0.59569
C         68.92329        70.17493         1.40462
C         67.88502        69.35898         0.70452
C         68.54177        71.44441         2.04185
C         72.09357        31.36831        -1.77131
C         70.87355        30.75651        -2.06707
C         72.12871        32.71119        -1.39963
C         70.94551        33.46693        -1.30493
C         72.17891        35.63523        -1.04655
C         70.97935        34.90485        -0.97873
C         72.21642        36.98534        -0.69896
C         71.05117        37.67256        -0.34722
C         72.31220        39.87890        -0.16976
C         71.08794        39.08401         0.20711
C         72.30442        41.22276        -0.27928
C         71.08351        42.00147        -0.14100
C         72.26082        44.20607        -0.41780
C         71.07924        43.39646        -0.19099
C         72.27663        45.56225        -0.30684
C         71.06251        46.33576         0.05486
C         72.17325        48.65662        -0.30896
C         71.00620        47.83438         0.09713
C         72.11340        49.99390        -0.24707
C         70.93313        50.66954         0.42103
C         72.06206        52.92390         0.15835
C         70.87865        52.17004         0.19921
C         72.02876        54.31323         0.13043
C         70.80596        55.01531         0.13137
C         71.91308        57.25980         0.29897
C         70.78180        56.47082         0.30037
C         71.88338        58.67120         0.51155
C         70.71986        59.37556         0.74338
C         71.87776        61.62170         0.95079
C         70.66029        60.83032         0.88252
C         71.86930        62.95350         1.20679
C         70.61604        63.68588         1.45034
C         71.51540        65.90341         2.06824
C         70.59069        65.17449         1.40181
C         71.41325        67.34934         2.13764
C         70.26890        67.99584         1.80331
C         70.85747        70.13464         3.07133
C         70.15559        69.47369         1.96078
C         70.52817        71.39448         3.45985
C         69.35827        72.05338         2.94194
O         64.57921        37.07430         2.07458
O         59.12869        60.81253        -3.43839
O         55.58181        58.73291        -3.06224
O         51.86347        56.13372         2.49851
O         67.26025        61.22444         2.04537
O         60.60163        39.32747         3.02671
O         62.82615        47.73367        -1.89728
O         67.63064        52.37541         1.54590
O         42.36024        53.83627         1.49796
O         45.25595        50.54475         2.20385
O         54.65298        48.68713         2.96564
O         66.06391        58.98645         1.97159
O         53.81912        54.54981        -1.37251
O         58.14742        55.35555        -2.78464
O         68.01035        41.66490        -1.56737
O         49.39453        50.64536         3.20511
O         68.32128        55.94273        -1.13739
O         62.41942        54.35982         1.04128
O         62.85920        40.79766         2.63101
O         64.75943        63.07038        -2.29371
O         67.73250        33.94001        -2.64191
O         65.03917        41.46053        -1.23654
O         50.39194        53.89245         3.11141
O         70.20584        70.21366         0.69001
O         55.64176        50.92550        -1.26751
O         69.45704        57.62993         2.01588
O         62.86718        61.76182        -2.95218
O         42.95285        51.16547        -2.01895
O         54.83486        59.50406         0.38674
O         63.64622        51.34142        -2.07206
O         56.42371        42.83161         3.42747
O         63.97507        57.77083         1.49371
O         68.03915        65.26651        -1.22387
O         69.78322        63.23631         2.58102
O         58.85764        49.68671        -1.75272
O         59.66554        48.64709         1.62157
O         50.43656        46.20046         3.16951
O         55.07537        45.31421         3.50518
O         69.22402        43.72542         1.38816
O         71.15477        47.03966         1.34764
O         69.63229        45.64914        -1.70775
H         70.38009        45.15465        -2.10482
O         53.44738        57.95758         1.91636
H         53.30044        57.28839         2.62394
O         60.24069        56.82860        -3.14927
H         60.60674        57.70011        -3.42852
O         60.20149        53.86719        -2.89834
H         59.79033        54.61446        -3.40142
O         71.12351        50.50488         1.85788
H         71.13800        49.54322         2.05304
O         62.59105        61.17242         0.60999
H         62.97083        60.71700         1.39346
O         51.50684        54.01188        -0.53043
H         52.09252        53.92554        -1.32376
O         68.39401        66.69319         2.56373
H         68.21183        67.45467         3.15229
O         70.20269        66.34641        -0.59711
H         69.56868        66.23135        -1.34642
O         60.30185        41.75818         3.46699
H         61.06061        41.18159         3.72472
O         53.13779        53.46352         2.68901
H         52.34730        53.71817         3.22694
O         71.16089        38.90457         1.66677
H         71.18953        39.79682         2.07350
O         60.66553        36.89893         2.46298
H         60.31327        37.55111         3.11801
O         68.54741        46.27210         1.74281
H         69.44795        46.56299         2.02644
O         61.42104        59.79607        -3.38065
H         61.82663        60.50896        -3.92981
O         66.10938        46.15736        -2.08279
H         66.08365        45.20702        -2.32492
O         49.54417        58.28917        -1.07287
H         48.62235        57.97239        -0.96034
O         48.57133        55.61567         3.35821
H         49.01273        54.88259         3.85048
O         68.69347        34.10648         0.88275
H         68.80032        34.80146         1.56652
O         53.32191        60.05993        -2.88044
H         54.13150        59.53781        -3.17342
H         38.23043        49.54624        -2.29737
H         36.11909        50.79401        -2.57919
H         38.02797        54.40374        -1.21171
H         36.02263        53.23616        -2.03485
H         39.89431        48.58139        -2.02940
H         39.66512        55.36230        -0.95758
H         41.89326        47.34963        -1.47643
H         41.64179        56.55297        -0.25276
H         45.48290        45.10116        -0.46538
H         43.51724        46.36121        -1.13735
H         45.27144        58.61507         0.98395
H         43.18816        57.41823         0.56477
H         47.01037        44.12132         0.00911
H         46.94195        59.55904         1.57179
H         49.03270        42.87001         0.46074
H         49.03307        60.67580         0.86975
H         52.48288        40.55745         1.58049
H         50.40246        41.80710         1.44617
H         52.21599        62.39304        -1.61943
H         50.33473        61.33856        -0.51259
H         54.12219        39.68789         1.08815
H         54.01223        63.36422        -1.54916
H         56.19841        38.45821         0.88431
H         56.13638        64.52680        -1.81124
H         59.99827        36.66160        -0.39144
H         57.95245        37.97164        -0.15947
H         59.83855        66.61469        -2.05032
H         57.74267        65.40017        -2.12463
H         61.42413        35.14192         0.49506
H         61.49763        67.55872        -2.24505
H         63.43125        33.91949        -0.18557
H         63.48491        68.82347        -1.65495
H         66.99594        31.99842        -2.00948
H         65.01370        33.05169        -0.94965
H         66.71284        71.10506         0.15649
H         64.86943        69.83795        -0.82678
H         68.73343        30.99076        -2.18727
H         67.56954        71.89657         1.79897
H         73.02804        30.79410        -1.83546
H         70.84268        29.70066        -2.36872
H         73.09868        33.17323        -1.17047
H         73.11266        35.14259        -1.34845
H         73.18759        37.49726        -0.70815
H         73.27563        39.35410        -0.23617
H         73.24966        41.74871        -0.47442
H         73.20379        43.69795        -0.66585
H         73.22954        46.09806        -0.42775
H         73.06459        48.15382        -0.71338
H         72.96979        50.59231        -0.59028
H         73.03814        52.42257         0.20453
H         72.97905        54.86267         0.15067
H         72.89245        56.81325         0.07892
H         72.84056        59.20433         0.43468
H         72.84066        61.12194         0.77818
H         72.80803        63.52566         1.17154
H         72.34604        65.41078         2.59479
H         72.28285        67.91011         2.51012
H         71.64749        69.58467         3.60303
H         71.08866        71.88402         4.26875
H         69.06811        73.02015         3.37709
