         260
 CSIRO Nanostructure Databank - Neutral Graphene Oxide Data Set
C         30.56020        31.55617         1.34056
C         30.48989        32.79364         1.32479
C         30.65926        36.08320         1.74625
C         30.54353        37.26865         1.40747
C         30.78816        40.80155         1.19179
C         30.39820        41.96071         1.29301
C         32.88524        28.88222         0.33783
C         31.95035        29.36435         1.07598
C         32.63195        31.53416        -0.01703
C         31.45244        30.66509         0.61163
C         32.57475        33.08005         0.05875
C         31.66659        33.67289         1.19793
C         32.94311        35.95037         1.05719
C         31.73387        35.12603         1.48037
C         32.91274        37.46799         1.02176
C         31.61119        38.33968         1.40511
C         32.52876        40.04402        -0.33722
C         31.42172        39.62314         0.59258
C         33.13497        41.44022        -0.05106
C         30.46026        43.38788         1.29856
C         32.61672        44.01823        -0.01138
C         31.51227        43.95366         0.55862
C         35.26288        27.22499        -0.51246
C         35.07453        28.61954        -0.89885
C         33.92673        29.35975        -0.42167
C         35.27079        31.50042        -0.33824
C         33.90475        30.88061        -0.63285
C         35.27783        32.94921         0.04075
C         33.98870        33.76084         0.01949
C         35.42397        35.93728         0.41409
C         34.09187        35.22346         0.38262
C         35.32952        37.41630         0.11009
C         33.97202        38.05192         0.14381
C         35.48657        40.32228        -1.10824
C         33.62493        39.09243        -0.64388
C         35.31860        41.70927        -1.10682
C         34.01904        42.31836        -0.92684
C         34.81491        44.69743        -1.08683
C         33.81971        43.72656        -0.68948
C         35.38058        45.82865        -0.52211
C         37.59761        27.08316         0.23736
C         36.20282        26.59563        -0.04341
C         37.72767        28.48993        -0.54878
C         36.45147        29.32388        -0.80101
C         37.74792        31.51582        -0.78038
C         36.44147        30.79938        -0.52240
C         37.79889        33.01065        -0.55180
C         36.58923        33.69976         0.02029
C         37.81167        35.85375        -0.19683
C         36.63427        35.18442         0.00849
C         37.81619        37.33519        -0.41967
C         36.53038        38.09755        -0.51990
C         37.74597        40.27150        -0.18858
C         36.60809        39.60018        -0.56811
C         37.72923        41.75146        -0.22536
C         36.54710        42.48521        -0.78942
C         37.95892        44.45475        -1.36131
C         36.77857        43.77183        -1.47599
C         37.80137        46.60184        -0.69423
C         36.44558        46.51809        -0.41885
C         40.21961        24.56526         0.58703
C         38.94748        24.91764         0.66552
C         40.49723        27.24965        -0.19309
C         38.61863        26.02929        -0.11492
C         40.34441        28.62177        -0.08593
C         39.05408        29.23172        -0.58404
C         40.35096        31.49000        -0.68294
C         39.05922        30.73073        -0.82549
C         40.33960        33.00797        -0.75162
C         39.08675        33.76463        -0.49916
C         40.30934        35.96405        -0.45949
C         39.06685        35.13936        -0.40248
C         40.25149        37.40537        -0.06260
C         39.07263        38.08341        -0.13572
C         40.25315        40.28831        -0.31824
C         39.00524        39.55930         0.28021
C         40.30772        41.76320         0.02858
C         39.01436        42.51247        -0.12840
C         40.33529        44.48671        -0.66453
C         39.09869        43.87034        -0.68465
C         40.26967        46.61072        -0.16034
C         38.93992        47.14505         0.00726
C         40.03328        48.57137         1.59748
C         38.99973        48.13127         1.01979
C         42.80728        24.57740         1.03482
C         41.49855        24.99004         0.63507
C         42.75010        27.35568         0.96258
C         41.51095        26.52177         0.55811
C         42.75808        28.73577         0.46509
C         41.55095        29.37549         0.17790
C         42.87459        31.54182        -0.09610
C         41.49874        30.89556         0.14343
C         42.93718        33.00498        -0.38146
C         41.65147        33.75039        -0.66488
C         42.87811        35.92522         0.01761
C         41.62869        35.24354        -0.44835
C         42.86325        37.40552         0.09401
C         41.54418        38.12691         0.16701
C         42.82427        40.36070        -0.24498
C         41.56309        39.61242         0.04407
C         42.78865        41.73230        -0.23213
C         41.57549        42.48769        -0.13486
C         42.70918        44.71149         0.16006
C         41.55467        43.89283        -0.20852
C         42.62881        46.01977         0.64764
C         41.41389        46.88255         0.64705
C         42.61868        48.48517         1.97456
C         41.34222        48.07847         1.47680
C         43.85722        25.22697         1.15521
C         45.29341        27.32593         0.91352
C         44.06773        26.68513         1.49501
C         45.32496        28.62221         0.45280
C         44.07492        29.40819         0.09529
C         45.39735        31.59157         0.41815
C         44.04896        30.87179         0.62288
C         45.41780        33.05635         0.09214
C         44.10309        33.77745         0.23858
C         45.31780        35.89837        -0.42385
C         44.16635        35.21784        -0.20954
C         45.31429        37.35570        -0.72654
C         44.02246        38.12102        -0.55736
C         45.35059        40.35279        -1.09762
C         44.02149        39.61631        -0.72375
C         45.31404        41.85447        -0.67110
C         44.02216        42.53750        -0.35164
C         45.22715        44.44309         0.86507
C         43.94746        43.86171         0.36846
C         45.18455        46.01732         0.84023
C         43.89221        46.49354         1.50442
C         43.71469        47.98043         1.64872
C         47.72131        27.22099         0.67412
C         46.59967        26.73026         0.87711
C         47.95537        28.54647         0.09230
C         46.60095        29.28506         0.03172
C         47.88849        31.49748        -0.29108
C         46.63695        30.78464         0.15720
C         47.86107        32.99326        -0.31445
C         46.57056        33.72829        -0.15955
C         47.80855        35.99381        -0.08318
C         46.62843        35.18132        -0.59508
C         47.82936        37.36939        -0.21544
C         46.62491        38.11231        -0.70463
C         47.80849        40.26072        -0.49973
C         46.60778        39.60535        -0.62310
C         47.87094        41.75079        -0.33448
C         46.59983        42.53157        -0.26555
C         47.84769        44.39840         0.90735
C         46.53626        43.59268         0.84761
C         47.55123        45.76096         1.21886
C         46.51225        46.40370         1.43985
C         50.55649        28.76945        -0.13457
C         49.23209        29.31318         0.24186
C         50.45425        31.63787        -0.38905
C         49.20229        30.81955         0.03066
C         50.37178        32.98363         0.37177
C         49.05175        33.72824         0.24976
C         50.23995        35.98246         0.77797
C         48.97620        35.22714         0.44479
C         50.26208        37.49358         0.50997
C         49.03713        38.16403        -0.01269
C         50.35419        40.24254        -0.60707
C         49.05000        39.52248        -0.26818
C         50.34795        41.75268        -0.25302
C         49.08395        42.23243         0.47421
C         50.36512        44.26027         0.78857
C         49.03164        43.75265         0.75204
C         51.57496        29.51252         0.04955
C         52.79541        31.79656         0.24079
C         51.81723        30.87699        -0.10046
C         52.84466        33.07921         0.20509
C         51.64213        33.77596         0.71233
C         52.57195        36.14134         0.90441
C         51.53656        35.22745         0.85076
C         52.64978        37.40500         0.81604
C         51.56886        38.21571         0.37438
C         52.68956        40.42753        -0.15165
C         51.60937        39.52016        -0.06221
C         52.84758        41.66361        -0.24212
C         51.66845        42.55049        -0.19142
C         51.50005        43.79277         0.58674
O         44.29992        43.80574         1.79086
O         31.49363        30.98445        -0.78284
O         36.76999        42.44703         0.66953
O         39.63689        26.48536        -0.98088
O         41.66226        27.10117         1.90880
O         49.24279        30.24481         1.36203
O         47.50737        42.68656        -1.39168
O         39.59967        42.26733         1.19665
O         33.38457        36.76569         2.19269
O         39.95891        30.95584        -1.96178
O         31.21558        39.69678        -0.85637
O         50.84062        42.56360        -1.36836
O         38.09947        45.79150        -1.84084
O         40.47348        45.75667        -1.24811
O         46.02962        37.63282        -1.96491
O         46.93931        35.09721        -2.09037
O         35.68795        36.91353         1.44573
O         48.61349        34.30005         1.52407
O         46.29744        31.22953         1.52198
O         41.54822        38.99054         1.37336
O         42.99800        36.61398         1.31993
O         37.13347        37.56098        -1.73309
O         41.06845        33.43233        -1.94866
O         35.78398        29.01035        -2.07530
O         43.23970        32.02713        -1.40739
O         50.03420        36.94699         1.85717
O         32.20161        34.12452         2.44273
O         34.46571        39.54449        -1.66903
O         33.14385        41.73211         1.13156
O         37.57479        32.44861        -1.88971
O         33.92239        34.79874        -1.00886
O         44.59592        42.64166        -1.69225
O         50.88926        32.98585         1.70225
O         38.52300        28.49894        -1.74448
O         47.26309        28.75450        -1.15957
O         43.57571        38.71541        -1.80902
O         35.65212        44.26152        -2.17771
O         36.06034        33.15091         1.27577
O         41.12685        35.87949        -1.67682
O         47.91260        32.21789        -1.55181
O         40.11947        40.26565        -1.75851
H         40.15246        39.33826        -2.07854
O         31.86343        33.52073        -1.10488
H         32.29277        33.13749        -1.89944
O         29.54199        44.10852         1.94180
H         29.72393        45.06596         1.86563
O         45.70327        34.95616        -2.80472
H         45.54495        35.87409        -3.14521
O         43.80831        45.94885         2.80474
H         43.02236        46.31110         3.26211
O         44.12178        29.53040        -1.34499
H         44.32223        28.65920        -1.74536
O         44.10501        26.87873         2.89184
H         43.21415        26.66054         3.24670
O         43.76581        30.84766         2.03020
H         44.62873        30.85085         2.50781
O         50.40318        31.95339        -1.77262
H         50.30367        31.13440        -2.30042
O         31.82059        38.80261         2.71680
H         32.19364        38.06200         3.24773
O         49.07372        41.54505         1.73536
H         48.27814        41.84416         2.23788
O         50.43850        40.12754        -2.04031
H         50.75607        40.99392        -2.39321
O         45.46394        40.34241        -2.52212
H         44.93972        41.09638        -2.87418
O         37.74157        27.41069         1.61329
H         37.77485        26.58173         2.13813
O         38.99331        39.62120         1.70904
H         39.88658        39.36093         2.04110
O         46.54561        42.78324         2.05656
H         45.76931        43.04456         2.60879
O         43.76915        33.81323         1.65564
H         44.41578        34.38317         2.12347
O         41.12383        31.29519         1.49557
H         41.88718        31.09059         2.09110
O         45.13931        46.44391        -0.50790
H         46.01967        46.34483        -0.92562
O         33.74675        31.08868        -2.06148
H         32.88263        30.69500        -2.31872
