         249
 CSIRO Nanostructure Databank - Neutral Graphene Oxide Data Set
C         30.46347        31.73296         0.93529
C         30.42568        32.89851         0.52250
C         30.42507        35.97405         0.57105
C         30.47759        37.21111         0.69587
C         30.58724        40.29190         1.57049
C         30.50456        41.51880         1.76189
C         32.86160        28.92167         0.92663
C         31.84916        29.55261         1.25529
C         32.84915        31.62196         0.53121
C         31.70241        31.02970         1.44136
C         32.74616        33.01565        -0.01393
C         31.42884        33.73126        -0.14610
C         32.74493        35.95218        -0.11426
C         31.38063        35.23169        -0.34685
C         32.72502        37.44137         0.00721
C         31.56037        38.13800         0.65313
C         32.92224        40.16166         1.14771
C         31.63936        39.43595         1.09590
C         32.99020        41.53728         1.76064
C         31.68527        42.29725         2.16005
C         33.05267        44.27568         2.03770
C         31.93163        43.74590         2.09781
C         35.50174        27.33524         0.12415
C         35.23610        28.69792        -0.08747
C         33.88464        29.35834        -0.08105
C         35.07111        31.54384        -0.52887
C         33.93117        30.89542         0.09858
C         35.25868        33.02517        -0.36179
C         34.01367        33.80692        -0.02162
C         35.24925        35.95480        -0.15918
C         33.96869        35.28883        -0.15423
C         35.30506        37.39329         0.00805
C         34.03764        38.18183         0.06866
C         35.30716        40.31811         0.37080
C         34.05974        39.53433         0.69374
C         35.50435        41.61531         1.13233
C         34.30738        42.30081         1.68119
C         35.48859        44.49398         1.32306
C         34.36394        43.80795         1.68780
C         35.65577        45.90384         1.18708
C         37.77438        27.36408        -0.66210
C         36.60158        26.78216        -0.14347
C         37.66269        28.78089        -0.83061
C         36.35906        29.37647        -0.65563
C         37.93631        31.81079        -1.22424
C         36.05297        30.73668        -1.06458
C         37.76945        33.14806        -0.77220
C         36.50132        33.80829        -0.63575
C         37.74266        35.88912        -0.21046
C         36.48230        35.20263        -0.32436
C         37.79638        37.29991         0.30640
C         36.50511        38.05128         0.15649
C         37.75203        40.25128        -0.14259
C         36.59348        39.50773         0.52830
C         37.80277        41.68729         0.28319
C         36.72465        42.37011         0.72473
C         37.75708        44.56872        -0.07786
C         36.86814        43.84920         0.99517
C         37.64230        46.01490        -0.15282
C         36.64652        46.52474         0.75751
C         40.20538        24.53580        -1.10151
C         39.14858        25.26721        -1.06752
C         40.26720        27.33712        -1.02180
C         38.96079        26.62497        -0.97998
C         40.25407        28.80497        -0.75879
C         38.98391        29.51096        -1.26746
C         40.20971        31.65597        -0.49152
C         39.03994        31.00273        -0.96598
C         40.17244        33.03995        -0.26842
C         38.97799        33.79568        -0.40482
C         40.24093        35.91891        -0.20104
C         38.96028        35.21224        -0.21776
C         40.22697        37.36452        -0.63191
C         39.00547        38.10414        -0.14641
C         40.29134        40.21955        -0.10325
C         39.02815        39.45402        -0.04928
C         40.23272        41.71432        -0.30825
C         38.84690        42.31053        -0.57959
C         39.97286        44.36339        -1.32549
C         38.80346        43.82584        -0.68082
C         40.11833        45.77554        -1.61296
C         38.33147        46.87926        -1.01615
C         39.99934        48.57136        -1.04873
C         38.83856        48.17415        -0.73845
C         42.79036        24.46855        -0.76169
C         41.48032        25.00869        -0.88683
C         42.65155        27.19261        -0.05103
C         41.53589        26.54148        -0.87428
C         42.68575        28.71510        -0.13082
C         41.43515        29.43994        -0.45123
C         42.57398        31.50720         0.44377
C         41.55063        30.95434        -0.57206
C         42.63314        33.03989         0.47447
C         41.38010        33.77998         0.17205
C         42.74225        35.86132        -0.40364
C         41.40903        35.23024        -0.11371
C         42.70990        37.36630        -0.29404
C         41.53128        38.08981        -0.39094
C         42.73154        40.27198        -0.58112
C         41.55246        39.52563        -0.38237
C         42.69651        41.67647        -0.85886
C         41.42282        42.33822        -0.91655
C         42.90365        44.68304        -1.47379
C         41.11410        43.54090        -1.58465
C         42.45053        45.79644        -0.84235
C         41.25203        46.55018        -1.25056
C         42.57534        48.51725        -0.79654
C         41.28556        47.99687        -1.09899
C         43.81984        25.17816        -0.63169
C         45.18179        27.22781        -0.05922
C         44.02706        26.54151        -0.31512
C         45.11241        28.61785         0.52301
C         43.84004        29.35831         0.26201
C         45.17366        31.60700         0.59181
C         43.92746        30.84923         0.23284
C         45.09892        33.08561         0.77709
C         43.93911        33.76915         0.49313
C         45.09652        35.95155         0.43799
C         43.92492        35.21060         0.30528
C         45.11254        37.35783         0.06611
C         43.95789        38.05665        -0.24295
C         45.21198        40.24474        -0.23609
C         44.02252        39.47726        -0.77405
C         45.26330        41.68926        -0.54917
C         44.01607        42.40175        -1.04314
C         45.38153        44.67727        -0.70638
C         44.14392        43.93385        -1.15664
C         45.44187        46.21189        -0.54181
C         44.33850        46.95246        -0.22894
C         43.77692        48.21938        -0.63065
C         47.55548        27.44787         0.11994
C         46.52858        26.77181        -0.09464
C         47.72617        28.78899         0.53508
C         46.39055        29.37376         0.92709
C         47.66005        31.65463         1.22466
C         46.31780        30.89179         1.30223
C         47.64976        33.12211         1.08137
C         46.31757        33.83943         1.26416
C         47.52638        35.96304         0.86334
C         46.34360        35.28370         0.80735
C         47.58327        37.42161         0.62092
C         46.36797        38.11969         0.16207
C         47.48858        40.31058         0.73543
C         46.30741        39.59665         0.24858
C         47.47727        41.76765         0.57755
C         46.43687        42.42967        -0.03444
C         47.95114        44.36036        -0.55320
C         46.52475        43.94334        -0.00351
C         47.90060        45.88009        -0.61044
C         46.83299        46.50600        -0.70339
C         50.13056        29.15190        -0.12677
C         48.89346        29.52687         0.42491
C         50.16955        31.78183         0.55266
C         48.97766        30.95437         0.87703
C         50.12372        33.15087         0.86917
C         48.85495        33.81644         1.02889
C         50.05553        36.11934         1.11603
C         48.84811        35.29113         0.72441
C         49.97794        37.53780         1.24122
C         48.59803        38.14456         1.47076
C         49.70815        40.35080         1.95093
C         48.54325        39.64624         1.31253
C         49.63054        41.87292         1.90109
C         48.68156        42.51002         0.95542
C         50.38620        44.02668         0.33398
C         49.00113        43.71851         0.34699
C         51.19249        29.80312        -0.33055
C         52.42609        32.10401        -0.16555
C         51.35449        31.17109        -0.05156
C         52.39573        33.32162         0.10250
C         51.43491        33.95741         1.08462
C         52.36067        36.36699         1.06242
C         51.30064        35.44861         1.02824
C         52.31518        37.62627         1.11316
C         51.12802        38.38646         1.23974
C         51.91775        40.77549         0.95378
C         51.01368        39.82738         1.32946
C         52.60408        41.78241         0.61574
C         52.78478        43.07439         0.16577
C         51.60831        43.88876         0.24458
O         49.10578        35.27676        -0.84287
O         45.62430        28.60270         1.90021
O         48.55799        31.14582         2.27229
O         35.28553        41.63374         2.57820
O         41.78259        33.52324         1.58980
O         36.91039        31.29068        -2.00983
O         32.00855        33.06224        -1.30305
O         40.40778        41.18237         1.02683
O         37.61002        40.47634        -1.60456
O         44.94864        41.83041        -2.01078
O         33.23944        38.14999        -1.17417
O         43.23963        46.18518         0.26454
O         44.86727        31.27597        -0.80928
O         47.47185        37.74974        -0.79984
O         45.22049        44.30526        -2.09089
O         34.88369        33.36296         1.05523
O         38.95447        46.34134        -2.17110
O         38.96318        29.31640        -2.75859
O         42.07893        44.09807        -2.45827
O         38.41296        41.72736        -1.90033
O         50.28238        42.52881         2.70504
O         41.18778        27.08472        -2.18125
O         32.46284        41.61980         3.14255
O         33.33377        29.17042        -1.39492
H         33.24196        28.20855        -1.55844
O         42.16162        31.03488         1.74237
H         41.77906        31.80884         2.22489
O         42.96533        35.59103        -1.83806
H         43.76705        36.08719        -2.11368
O         45.93306        30.95966         2.68356
H         46.71246        30.71070         3.22674
O         48.10453        43.83925        -1.85579
H         48.92629        44.18901        -2.25520
O         36.95464        39.55355         1.94658
H         36.14142        39.63951         2.49144
O         35.12209        40.72904        -1.00232
H         34.86505        39.94943        -1.54071
O         38.02904        37.11585         1.74844
H         37.86217        37.99298         2.17721
O         42.06719        31.23434        -1.89089
H         41.44487        30.83020        -2.54917
O         42.29779        26.86069         1.31447
H         42.93839        27.28935         1.92184
O         37.64052        43.96421         2.21680
H         37.20994        43.41285         2.90533
O         47.87528        35.04353        -1.53173
H         47.54482        35.96993        -1.69368
O         48.21259        37.82778         2.83805
H         48.75483        38.40377         3.42975
O         46.42173        44.36489         1.37163
H         47.17723        44.00422         1.88330
O         40.28723        29.59246        -3.27863
H         40.71812        28.69579        -3.27700
O         46.13307        33.91782         2.71954
H         46.83836        34.49277         3.08658
O         44.20396        39.29366        -2.20929
H         44.47248        40.17320        -2.57873
O         30.99218        35.49289        -1.68677
H         31.04091        34.65612        -2.19834
O         49.75225        40.00982         3.36262
H         50.24080        40.74335         3.80585
O         31.96524        31.40098         2.76748
H         31.33003        30.95528         3.36364
O         53.94669        43.53178        -0.33368
H         53.87268        44.47376        -0.58035
O         51.89069        33.65098         2.40275
H         52.02412        32.68291         2.47875
O         40.08153        37.32300        -2.09290
H         40.85395        36.83095        -2.45030
