         424
 CSIRO Nanostructure Databank - Neutral Graphene Oxide Data Set
C          1.22072         4.13867         2.68950
C          0.02883         4.84577         2.61532
C          1.18449         6.80926         1.71674
C          0.00239         6.16112         2.13577
C          1.18489         8.16252         1.19349
C         -0.02366         8.94050         1.11947
C          1.16635        10.95057         0.36892
C         -0.02510        10.27026         0.77226
C          1.21601        12.31806         0.10648
C          0.08086        13.19665         0.33870
C          1.12274        14.97840        -1.06328
C          0.05612        14.46123        -0.13004
C          1.22738        16.51180        -1.01634
C         -0.02969        17.14527        -1.56517
C          1.19671        19.15350        -2.33390
C         -0.03739        18.36009        -2.12931
C          1.18602        20.64901        -2.00741
C         -0.03592        21.27136        -1.47175
C          1.21879        23.25886        -0.76502
C         -0.00362        22.48188        -0.86801
C          1.21482        24.59352        -0.36059
C          0.02790        25.27464         0.08151
C          1.26932        27.32753         0.64426
C          0.03710        26.57452         0.50926
C          1.27386        28.68623         1.20871
C          0.10921        29.22957         1.78607
C          1.31041        31.27845         2.24486
C          0.15671        30.49221         2.36118
C          1.24670        33.55727         2.14384
C          0.03359        34.25637         2.12313
C          1.11216        36.02533         0.88789
C         -0.05648        35.45683         1.42468
C          1.08256        37.34267         0.30207
C          3.66068         4.03881         2.34873
C          2.43974         4.74506         2.28215
C          3.64156         6.71715         1.40022
C          2.41949         6.09622         1.79615
C          3.62717         8.06596         0.91949
C          2.39554         8.75640         0.79248
C          3.66172        10.87737         0.36641
C          2.38484        10.09623         0.07596
C          3.66818        12.22465        -0.31400
C          2.44799        12.94896        -0.36040
C          3.66107        14.91777        -1.17822
C          2.44902        14.27948        -0.83588
C          3.63893        16.30539        -1.64081
C          2.47276        17.01352        -1.70606
C          3.65958        19.16681        -1.67272
C          2.52513        18.37811        -2.36769
C          3.72433        20.62366        -2.14745
C          2.45945        21.34634        -1.71005
C          3.77500        23.22367        -0.72790
C          2.46061        22.59326        -1.14426
C          3.74368        24.73150        -0.59156
C          2.42482        25.46699        -0.62183
C          3.72209        27.37818         0.46828
C          2.43526        26.73415         0.20730
C          3.72637        28.83413         0.91460
C          2.44123        29.49774         1.14484
C          3.64140        31.72555         1.26365
C          2.45889        30.87048         1.52808
C          3.60934        33.15900         1.25545
C          2.40363        33.97402         1.45047
C          3.56447        36.01821         0.67784
C          2.34898        35.31723         0.96004
C          3.51996        37.39439         0.22979
C          2.23102        37.98714        -0.04106
C          6.09892         3.92361         1.99204
C          4.87631         4.63366         1.94257
C          6.08801         6.59868         1.04894
C          4.86563         5.99132         1.46546
C          6.08464         7.95275         0.59170
C          4.87181         8.69430         0.54794
C          6.09425        10.64678        -0.29022
C          4.89868        10.04941         0.12638
C          6.09961        11.99579        -0.96102
C          4.85908        12.82014        -0.72307
C          6.16541        14.83198        -1.29280
C          4.88709        14.19038        -1.11136
C          6.24140        16.22253        -1.75112
C          4.91921        16.98668        -1.99265
C          6.19206        19.11671        -1.73288
C          4.98069        18.44111        -1.83589
C          6.19301        20.58508        -1.65672
C          5.00498        21.28370        -1.70064
C          6.22202        23.41891        -1.22883
C          4.92811        22.78176        -1.64125
C          6.20884        24.75052        -0.76911
C          4.92890        25.41755        -0.49873
C          6.12878        27.53684         0.04228
C          4.96077        26.81411        -0.08542
C          6.11899        28.95496         0.36466
C          4.92953        29.64017         0.69283
C          6.07016        31.80458         0.63437
C          4.86373        31.06255         0.86196
C          6.05044        33.23641         0.69945
C          4.80658        33.89615         0.92164
C          6.02794        36.10293         0.79830
C          4.77967        35.32988         0.80519
C          5.97058        37.61212         0.44722
C          4.68329        38.11186         0.00330
C          8.53468         3.80664         1.62965
C          7.31521         4.51622         1.58137
C          8.52887         6.48814         0.67574
C          7.31062         5.87640         1.10511
C          8.51752         7.82498         0.21190
C          7.31154         8.56721         0.19551
C          8.57001        10.62916        -0.41162
C          7.31073         9.93507        -0.23160
C          8.57101        12.07463        -0.53353
C          7.37479        12.76476        -0.72043
C          8.60946        14.90898        -0.87502
C          7.36899        14.17452        -0.95724
C          8.61417        16.31182        -1.01835
C          7.44971        17.00352        -1.43472
C          8.67967        19.14884        -1.41048
C          7.43468        18.41375        -1.54560
C          8.68161        20.58614        -1.56858
C          7.45835        21.28582        -1.58974
C          8.64811        23.44994        -1.34594
C          7.43692        22.72681        -1.41488
C          8.62333        24.80810        -1.00162
C          7.42062        25.45351        -0.64106
C          8.60555        27.69654        -0.40256
C          7.45527        26.81776         0.01114
C          8.57876        29.03871        -0.14361
C          7.32895        29.70663         0.22613
C          8.51468        31.84595         0.03519
C          7.27702        31.09767         0.33130
C          8.50665        33.32484         0.12958
C          7.25064        34.01145         0.48163
C          8.51912        36.14982         0.37090
C          7.28656        35.39775         0.54554
C          8.50893        37.59883         0.32544
C          7.22828        38.32827        -0.01565
C         10.97603         3.68967         1.32045
C          9.75688         4.40370         1.22962
C         10.99915         6.36532         0.36361
C          9.76029         5.75140         0.73934
C         11.02362         7.74025        -0.09259
C          9.73212         8.41898        -0.45844
C         11.02667        10.62050        -0.32884
C          9.77007         9.92782        -0.35643
C         11.04411        12.06630        -0.34393
C          9.82390        12.78787        -0.49168
C         11.08171        14.91798        -0.55895
C          9.83442        14.20059        -0.61646
C         11.11314        16.33216        -0.66724
C          9.82142        17.09377        -0.56270
C         11.13970        19.16883        -1.17616
C          9.87331        18.49129        -1.11470
C         11.15358        20.60284        -1.43117
C          9.93846        21.28357        -1.57554
C         11.16144        23.42600        -1.28363
C          9.90892        22.77875        -1.84787
C         11.15566        24.86830        -0.93073
C          9.87300        25.60095        -1.10009
C         11.14856        27.74005        -0.53888
C          9.86573        27.06167        -0.82828
C         11.11281        29.08791        -0.20849
C          9.83614        29.78758        -0.11628
C         11.03057        31.88511         0.55684
C          9.80757        31.13695         0.10498
C         10.98339        33.36395         0.27396
C          9.79662        34.04315         0.27181
C         10.99583        36.21214         0.45485
C          9.75023        35.48909         0.29883
C         10.96085        37.66351         0.57982
C          9.68387        38.30886         0.43357
C         13.43005         3.57639         1.06120
C         12.20415         4.29181         0.96866
C         13.46725         6.23875        -0.03506
C         12.19866         5.65143         0.51214
C         13.49799         7.74929        -0.04073
C         12.22149         8.44185        -0.21572
C         13.50963        10.57520        -0.12255
C         12.21955         9.87729        -0.30346
C         13.53537        12.06628        -0.04702
C         12.26749        12.79517        -0.25871
C         13.56387        14.94408        -0.06887
C         12.29279        14.18676        -0.38053
C         13.57767        16.35028        -0.61761
C         12.35205        17.03935        -0.76164
C         13.64402        19.13513        -1.38245
C         12.34081        18.46162        -1.02503
C         13.62985        20.63200        -1.18534
C         12.43443        21.29628        -1.38075
C         13.67290        23.51239        -1.12930
C         12.46782        22.77769        -1.66106
C         13.63856        24.90429        -0.99887
C         12.41865        25.63676        -0.92013
C         13.62768        27.75375        -0.49053
C         12.38878        27.02564        -0.68895
C         13.59653        29.14377        -0.18865
C         12.34334        29.83779        -0.06038
C         13.54106        31.96374         0.26385
C         12.32228        31.21488         0.17289
C         13.52214        33.36929         0.37853
C         12.26184        34.11079         0.01773
C         13.42238        36.21647         1.01709
C         12.19226        35.52901         0.50269
C         13.41867        37.70569         0.74925
C         12.15582        38.37250         0.65255
C         15.90961         3.51245         1.02605
C         14.68756         4.20507         0.83830
C         15.95280         6.25599         0.35700
C         14.72381         5.59018         0.48486
C         15.97898         7.77207         0.34026
C         14.68815         8.40760        -0.09306
C         16.04158        10.57915        -0.28331
C         14.74819         9.84112        -0.57413
C         16.03809        12.02088        -0.30414
C         14.82199        12.76940        -0.27668
C         16.06203        14.85847        -0.49426
C         14.82934        14.16172        -0.34865
C         16.06035        16.31141        -0.56418
C         14.83770        17.03213        -0.69155
C         16.06731        19.16811        -0.67186
C         14.87307        18.44646        -0.86049
C         16.08180        20.62119        -0.67726
C         14.87139        21.35152        -0.96424
C         16.09817        23.48373        -0.60644
C         14.88416        22.76888        -0.93482
C         16.11781        24.89204        -0.58224
C         14.93048        25.66924        -1.08274
C         16.07111        27.75831        -0.28036
C         14.86336        27.07595        -0.55010
C         16.05777        29.16177        -0.03455
C         14.81360        29.85662         0.00245
C         16.01222        31.98654         0.33772
C         14.79434        31.26702         0.22116
C         15.98737        33.40589         0.48434
C         14.73158        34.09977         0.51465
C         15.91407        36.24025         0.70314
C         14.71438        35.51932         0.66081
C         15.88771        37.69100         0.78878
C         14.62139        38.38087         0.75731
C         18.39753         3.46547         0.96201
C         17.14269         4.14832         0.78467
C         18.44210         6.15477        -0.03965
C         17.15549         5.53156         0.44231
C         18.42848         7.66555         0.11016
C         17.18555         8.36770        -0.41941
C         18.50053        10.56478        -0.21732
C         17.23310         9.87629        -0.25276
C         18.51645        11.98288        -0.34752
C         17.27528        12.71957        -0.39846
C         18.55067        14.85979        -0.83725
C         17.26791        14.13371        -0.53188
C         18.52788        16.31576        -0.44363
C         17.29050        17.02280        -0.49602
C         18.50257        19.15726        -0.19556
C         17.28447        18.45331        -0.44287
C         18.48984        20.58182        -0.07826
C         17.26659        21.30700        -0.33569
C         18.46848        23.45429         0.02505
C         17.28764        22.75270        -0.28251
C         18.51062        24.87303        -0.03336
C         17.30728        25.60080        -0.29189
C         18.52567        27.72873         0.02370
C         17.31703        27.03520        -0.21575
C         18.52628        29.16257         0.15146
C         17.28300        29.87521         0.14356
C         18.49007        32.01314         0.42469
C         17.26384        31.28762         0.30220
C         18.46645        33.44122         0.54065
C         17.20639        34.13585         0.56195
C         18.39358        36.29468         0.72863
C         17.17378        35.55503         0.65018
C         18.34653        37.72225         0.82504
C         17.08295        38.39135         0.83933
C         19.60791         4.14424         0.88257
C         20.90387         6.22806         0.46951
C         19.67871         5.50279         0.51879
C         20.95887         7.58077         0.23834
C         19.73327         8.39988         0.21280
C         20.94304        10.55515        -0.17051
C         19.73600         9.85209        -0.09824
C         20.96293        11.94131        -0.29585
C         19.76745        12.68445        -0.35809
C         20.95256        14.85981        -0.16238
C         19.78759        14.12327        -0.39652
C         20.94658        16.25361        -0.11403
C         19.73533        16.99611        -0.20331
C         20.87594        19.14078         0.36746
C         19.71964        18.43536        -0.00718
C         20.84197        20.52108         0.54203
C         19.67664        21.25601         0.29651
C         20.94948        23.45159         0.21354
C         19.67191        22.73757         0.58379
C         20.97113        24.79554         0.07813
C         19.75055        25.58160         0.09175
C         20.97044        27.75072         0.27142
C         19.76161        26.99845         0.11520
C         20.96183        29.11975         0.35149
C         19.74450        29.87140         0.30739
C         20.92770        32.06962         0.52286
C         19.73164        31.30983         0.41919
C         20.90235        33.44613         0.61598
C         19.68129        34.17102         0.62683
C         20.82981        36.39301         0.80241
C         19.65195        35.62013         0.72039
C         20.77521        37.78497         0.88916
C         19.55120        38.45096         0.90133
O          8.40832        32.67069        -1.20977
O         18.85603         8.11876         1.40297
O          6.06111        37.15842         1.82413
O          3.91617        27.73899         1.89036
O          5.68738        16.43825        -3.09638
O         11.07281        23.81439         0.11169
O          1.31466        32.45211         3.00019
O          1.06967        20.13654        -3.39228
O          9.85094        26.52992        -2.23206
O         13.58812        11.23797         1.18542
O          9.88415        22.96291        -3.29023
H         10.80791        22.86142        -3.62348
O         17.01842         8.11989        -1.83476
H         17.36570         7.21297        -2.03105
O         13.45238         5.88601        -1.47597
H         13.25635         4.92660        -1.53637
O         19.56113        22.84461         2.05065
H         19.52172        23.80043         2.26798
O          9.61642        17.28564         0.90353
H          9.76619        16.41520         1.33174
O          2.86782        18.14515        -3.73862
H          2.88867        19.02419        -4.18477
O          7.17279        38.51004        -1.44509
H          7.37043        37.65341        -1.87657
O          9.54501         8.13294        -1.90130
H          8.74586         8.62313        -2.19297
O         16.16134         8.17956         1.72608
H         15.42654         7.80837         2.25704
O          0.70027        14.65110        -2.41923
H          0.71790        13.67568        -2.51339
O          3.64028        11.15028         1.80101
H          4.43341        11.68103         2.02318
O         10.98341        31.80926         2.03991
H         11.12576        30.87143         2.29159
O          2.27940        25.92006        -2.02165
H          1.37363        26.28528        -2.11376
O          2.37725         9.80470        -1.35025
H          1.58229         9.26513        -1.54257
O          4.08739        22.68221         0.59316
H          3.42434        23.02816         1.22707
O         12.34929        34.21991        -1.46557
H         11.47773        34.53561        -1.78898
O         14.66548         9.76984        -2.02893
H         15.40865         9.18920        -2.32518
O          3.76262        20.66316        -3.59929
H          3.84885        21.61754        -3.83915
O          7.74086        26.53811         1.43857
H          6.93529        26.13374         1.82730
O         13.33116        36.09921         2.49101
H         14.06614        36.62944         2.86748
O          1.37073        16.90533         0.38002
H          1.87736        17.74997         0.40514
O          4.60792        23.26135        -2.98952
H          5.45138        23.37395        -3.47749
O         12.57869        22.89545        -3.12920
H         13.49645        22.65615        -3.38159
O         13.75105        18.97052        -2.85908
H         12.91557        19.30887        -3.24817
O          6.09213        11.69295        -2.40385
H          6.04903        12.54922        -2.88150
O          3.31378        19.18876        -0.25485
H          3.97426        19.74834         0.20948
O         13.54481        15.11733         1.40234
H         13.58608        14.21991         1.79915
O         15.16379        25.82312        -2.54130
H         15.96878        26.37429        -2.64785
O         18.48050         5.88921        -1.50158
H         18.44176         4.91537        -1.61894
O         18.63487        14.87110        -2.32634
H         19.45672        15.35358        -2.56058
H          1.23269         3.10530         3.06447
H         -0.90981         4.37049         2.93350
H         -0.96328         6.68165         2.08949
H         -0.97586         8.48135         1.41717
H         -0.97322        10.82476         0.82311
H         -0.75775        12.82784         0.94721
H         -0.80686        15.10725         0.08838
H         -0.97360        16.58831        -1.47072
H         -0.97666        18.78384        -2.51595
H         -0.99210        20.74321        -1.59061
H         -0.94386        22.91224        -0.49724
H         -0.92623        24.72985         0.10587
H         -0.91261        27.02780         0.82192
H         -0.80985        28.63650         1.87224
H         -0.69908        30.88439         2.92537
H         -0.82846        33.85260         2.66941
H         -1.00747        36.00510         1.37334
H          0.10589        37.82884         0.16304
H          3.66432         3.00308         2.71968
H          2.19995        39.00247        -0.46171
H          6.10253         2.88509         2.35497
H          4.64749        39.06281        -0.54794
H          8.54082         2.77063         1.99957
H          7.24500        39.35430         0.43260
H         10.96649         2.65164         1.68388
H          9.65455        39.40863         0.39329
H         13.40793         2.52335         1.37776
H         12.14174        39.47148         0.58736
H         15.89196         2.45605         1.33263
H         14.63132        39.48115         0.71017
H         18.38357         2.40669         1.25721
H         17.06766        39.49044         0.89285
H         20.53744         3.61909         1.15086
H         21.84256         5.67160         0.61869
H         21.93912         8.06991         0.15437
H         21.89903        10.01936        -0.09882
H         21.93505        12.44977        -0.33771
H         21.90031        14.34306         0.04384
H         21.89688        16.77013         0.07101
H         21.81802        18.61080         0.55805
H         21.75126        21.03157         0.88674
H         21.89311        22.88938         0.16906
H         21.92941        25.30370        -0.10170
H         21.93151        27.22340         0.34029
H         21.91971        29.64268         0.47472
H         21.90245        31.56388         0.52016
H         21.85827        33.98244         0.68462
H         21.81404        35.90605         0.79820
H         21.70997        38.35979         0.95004
H         19.51723        39.54749         0.97264
