         651
 CSIRO Nanostructure Databank - Neutral Graphene Oxide Data Set
C          6.06235        31.95142         1.71972
C          6.04153        33.24547         1.32873
C          8.40521        27.47525         1.25700
C          8.43550        28.92600         1.53153
C          7.28703        29.68469         1.71342
C          8.36934        31.75312         0.85821
C          7.36584        31.19071         1.84946
C          8.42336        33.22825         0.67198
C          7.24302        33.96848         0.90252
C          8.42897        36.02028         0.27774
C          7.24538        35.35309         0.62988
C          8.44950        37.47218        -0.15594
C         10.96402        23.24158         0.99688
C         11.05361        24.64408         1.31783
C          9.80346        25.32726         1.12852
C         11.27210        27.58844         1.73464
C          9.42965        26.60471         1.62488
C         10.97698        28.88756         1.11230
C          9.69603        29.59798         1.27517
C         10.83266        31.66182         0.15773
C          9.61083        30.93263         0.64314
C         10.82038        33.14133        -0.07528
C          9.59628        33.88914         0.25883
C         10.94152        35.98592         0.03131
C          9.63085        35.29146         0.17247
C         10.99327        37.47299         0.10790
C          9.68095        38.22681         0.39203
C         10.89306        40.27946        -0.45052
C          9.72841        39.64582        -0.08626
C         10.91934        41.70765        -0.49601
C         13.42584        18.77833         1.28817
C         13.40410        20.26048         1.59196
C         12.13911        20.94980         1.05926
C         13.77875        23.30032         1.63572
C         11.87107        22.24716         1.44574
C         13.64427        24.71092         1.37437
C         12.33863        25.35286         1.50917
C         13.59889        27.52115         1.02504
C         12.36778        26.78764         1.41936
C         13.52241        28.97739         0.67351
C         12.17613        29.61547         0.56452
C         13.26752        31.69418        -0.31920
C         12.18203        31.12430         0.55593
C         13.25721        33.07404        -0.60080
C         12.10530        33.85942        -0.27249
C         13.30485        35.94837        -0.85602
C         12.13542        35.25194        -0.45619
C         13.32172        37.37995        -0.89636
C         12.16391        38.13707        -0.52206
C         13.32406        40.21267        -1.03705
C         12.13855        39.53350        -0.68601
C         13.32166        41.71396        -1.21780
C         12.11694        42.41004        -0.63369
C         13.45707        44.38411         0.00730
C         12.20123        43.74661        -0.22711
C         13.52080        45.57674         0.70177
C         15.72578        14.39839         0.51987
C         15.69872        15.91446         0.61455
C         14.57716        16.62419         0.90653
C         15.74604        18.81785         0.51291
C         14.54442        18.08866         0.91336
C         15.69930        20.26385         0.48844
C         14.64073        20.99791         1.03704
C         15.94200        23.12330         0.58034
C         14.71387        22.44402         1.04678
C         16.01871        24.62383         0.62185
C         14.78745        25.39236         0.88240
C         15.80323        27.44973        -0.11953
C         14.77417        26.77948         0.55912
C         15.61611        28.77749        -0.64873
C         14.51663        29.54972        -0.25265
C         15.23833        31.41029        -1.71523
C         14.33041        30.87140        -0.75519
C         15.13934        32.80374        -2.02927
C         14.32613        33.69152        -1.34015
C         15.69233        35.95120        -1.85170
C         14.60147        35.18011        -1.07179
C         15.68569        37.34167        -1.77521
C         14.51213        38.06945        -1.31874
C         15.76666        40.23055        -1.45042
C         14.51365        39.49433        -1.29951
C         15.82013        41.60800        -1.05008
C         14.62641        42.33070        -0.78091
C         15.95422        44.26370        -0.10307
C         14.68752        43.64734        -0.32484
C         15.94556        45.74336         0.18674
C         14.83956        46.11735         1.18318
C         15.99623        48.33944         1.33901
C         14.81146        47.60665         1.37015
C         15.96719        49.76683         1.52204
C         18.42795        10.28619         1.32684
C         18.37145        11.70222         1.24980
C         17.12878        12.38511         1.09215
C         18.28222        14.49555         0.81440
C         17.07030        13.75152         0.83911
C         18.26477        15.91390         0.37814
C         16.93331        16.63166         0.23933
C         18.18065        18.77020         0.02380
C         16.92050        18.10881         0.23287
C         18.13327        20.15801        -0.46226
C         16.80533        20.94695        -0.21592
C         18.05806        23.02647        -0.75123
C         16.94797        22.39327        -0.20699
C         17.98695        24.49022        -1.10693
C         17.14349        25.29204        -0.12308
C         17.95510        27.29739        -1.47478
C         17.06844        26.75148        -0.42626
C         17.62650        28.47547        -2.06164
C         16.50562        29.29843        -1.65495
C         18.29725        31.76129        -2.79090
C         16.30520        30.58543        -2.17232
C         18.25264        33.16989        -2.68524
C         17.03417        33.95172        -2.68424
C         18.17286        36.04642        -2.32307
C         16.93169        35.28243        -2.27677
C         18.18735        37.42584        -2.25833
C         16.85546        38.15632        -2.36488
C         18.15968        40.32022        -1.92851
C         16.94032        39.58676        -1.85457
C         18.26509        41.61825        -1.37882
C         17.07874        42.25127        -0.89011
C         18.47033        44.12193         0.07849
C         17.13182        43.57523        -0.36412
C         18.45106        45.61437         0.33791
C         17.27898        46.31424         0.60553
C         18.50051        48.36183         1.37700
C         17.25098        47.64299         1.11943
C         18.43436        49.85787         1.52583
C         17.12343        50.55784         1.52766
C         18.36655        52.71239         1.71442
C         17.13975        51.96096         1.64186
C         18.37800        54.08232         2.06394
C         20.91776         6.00881         1.33784
C         20.87895         7.43305         1.38773
C         19.69967         8.16056         1.38467
C         20.86590        10.35982         1.45854
C         19.65375         9.60400         1.41635
C         20.85792        11.76700         1.30681
C         19.58720        12.45685         1.25019
C         20.74541        14.67185         1.14161
C         19.50898        13.86590         1.08849
C         20.70053        16.10432         0.79485
C         19.49603        16.72883         0.53136
C         20.62199        18.97502         0.39319
C         19.39921        18.14618         0.29569
C         20.59775        20.36237        -0.14539
C         19.33617        20.95282        -0.60845
C         20.54497        23.09296        -0.91131
C         19.31074        22.32455        -0.87989
C         20.49127        24.52909        -1.05990
C         19.31150        25.19571        -1.27585
C         20.48441        27.48024        -1.50270
C         19.25926        26.60439        -1.85562
C         20.62948        28.89972        -1.98139
C         19.56995        29.61170        -2.53069
C         20.67483        31.75869        -2.15847
C         19.50702        31.04765        -2.54354
C         20.65733        33.17704        -2.22504
C         19.47400        33.86224        -2.47372
C         20.72015        36.08422        -2.72124
C         19.42405        35.32617        -2.64543
C         20.66725        37.52691        -2.44321
C         19.44285        38.15410        -2.32480
C         20.64842        40.42631        -2.54611
C         19.38074        39.63923        -2.42929
C         20.54730        41.95735        -2.41090
C         19.50475        42.39645        -1.39933
C         20.84590        44.42300        -0.89392
C         19.61836        43.62521        -0.78742
C         20.91749        45.73696        -0.24524
C         19.76785        46.25103         0.51989
C         20.94495        48.52477         0.60074
C         19.79843        47.70651         1.00336
C         20.81788        50.00777         0.51399
C         19.58333        50.66490         1.01601
C         20.85179        52.75933         1.57629
C         19.60899        52.08348         1.41424
C         20.83197        54.08968         2.06621
C         19.59795        54.78268         2.25113
C         20.83013        56.89466         2.69400
C         19.61295        56.17001         2.59618
C         20.85478        58.34486         2.82355
C         23.46152         3.24288         1.16640
C         22.22720         3.89670         1.34311
C         23.33312         6.01812         0.74292
C         22.12128         5.29196         1.19510
C         23.33369         7.51609         0.85428
C         22.19671         8.12199         1.67669
C         23.39859        10.40291         1.23001
C         22.15276         9.65248         1.60882
C         23.32746        11.84666         0.90589
C         22.08080        12.48682         1.07251
C         23.22713        14.66533         0.39892
C         22.07395        13.95944         1.08998
C         23.27719        16.14976         0.67655
C         21.98123        16.84048         0.89552
C         23.17565        18.97436         0.18321
C         21.95434        18.33385         0.61755
C         23.14557        20.23180        -0.56462
C         21.82862        20.96485        -0.72594
C         23.03581        23.10362        -0.98803
C         21.80649        22.43192        -0.88096
C         23.04213        24.57401        -0.88124
C         21.74191        25.30356        -0.86283
C         23.05823        27.48541        -1.12248
C         21.73994        26.79443        -1.03868
C         23.04624        28.93376        -1.26375
C         21.84559        29.61781        -1.64508
C         23.03204        31.76959        -1.39240
C         21.86587        31.04326        -1.76734
C         22.97771        33.27903        -1.23591
C         21.95157        33.89071        -2.16020
C         23.21522        36.10992        -2.08270
C         22.00551        35.34760        -2.47824
C         23.22377        37.53420        -2.25107
C         21.96059        38.27844        -2.70471
C         23.22202        40.41846        -2.26952
C         21.90652        39.68725        -2.09392
C         23.24514        41.89090        -2.30941
C         21.91071        42.63641        -2.25498
C         23.14875        44.82178        -1.89035
C         21.93154        43.95775        -1.61474
C         23.34622        45.82555        -0.76412
C         22.07040        46.49913        -0.29480
C         23.19232        48.71998        -0.29394
C         22.07818        47.88902         0.11425
C         23.32813        50.08018         0.31903
C         22.05456        50.90550         0.31983
C         23.35261        52.76085         1.48547
C         22.09803        52.12132         1.23513
C         23.37789        54.11874         2.01547
C         22.09944        54.71284         2.56772
C         23.29724        56.98205         2.51734
C         22.04674        56.20814         2.58174
C         23.31689        58.30015         3.24405
C         22.02627        59.05658         3.00039
C         23.29661        61.14732         3.13042
C         22.07939        60.48150         3.06665
C         24.63857         3.92614         0.87682
C         25.82327         6.08068         0.58691
C         24.64790         5.34143         0.70535
C         25.84176         7.52180         0.60071
C         24.63067         8.19941         0.79829
C         25.86535        10.40651         0.55224
C         24.58844         9.65693         0.72390
C         25.85098        11.84953         1.01179
C         24.54209        12.55255         0.71486
C         25.73763        14.70239         0.55437
C         24.55782        13.97534         0.59031
C         25.77600        16.17897         0.83827
C         24.43864        16.85079         0.61263
C         25.61398        18.88172        -0.27003
C         24.47818        18.37304         0.64484
C         25.63659        20.39934        -0.26581
C         24.36031        21.05152        -0.63846
C         25.53459        23.18898        -1.09835
C         24.28450        22.41015        -0.88288
C         25.49327        24.65969        -0.93423
C         24.30351        25.33938        -0.99474
C         25.57953        27.51643        -1.11744
C         24.24824        26.78811        -0.99901
C         25.48801        28.97384        -0.72721
C         24.24082        29.66626        -1.00328
C         25.35382        31.87980        -0.55393
C         24.18352        31.09304        -0.99332
C         25.45838        33.31807        -0.92800
C         24.31457        33.98729        -1.32170
C         25.65358        36.05101        -1.70380
C         24.34107        35.39212        -1.66038
C         25.69104        37.54310        -2.02039
C         24.40643        38.26199        -2.14219
C         25.69263        40.45322        -2.22532
C         24.40006        39.71727        -2.17135
C         25.70840        41.90127        -1.89830
C         24.50893        42.58309        -1.94263
C         25.78173        44.79784        -1.70533
C         24.49948        44.06653        -2.00629
C         25.72685        46.25801        -1.38886
C         24.46811        46.76637        -1.15396
C         26.06519        49.29492        -0.88633
C         24.17785        48.16273        -1.05450
C         25.94638        50.36418        -0.00856
C         24.62178        50.82020         0.49003
C         25.84710        52.68469         1.60569
C         24.57444        52.16555         1.09591
C         25.84997        54.11773         2.15174
C         24.56115        54.81533         2.12553
C         25.87003        56.96922         2.59398
C         24.58940        56.28159         2.27848
C         25.80743        58.36888         2.83652
C         24.59664        59.07053         2.98937
C         24.53480        60.47096         3.07011
C         27.08373         8.26253         0.56247
C         28.35089        10.42013         0.67559
C         27.14614         9.65935         0.60282
C         28.36604        11.83410         0.58666
C         27.06191        12.53354         0.42332
C         28.28267        14.77445         0.34967
C         27.01789        14.02389         0.30352
C         28.25426        16.17153         0.27065
C         26.99368        16.89110         0.26234
C         28.19310        18.98859        -0.24649
C         26.96339        18.24107        -0.01104
C         28.18381        20.34345        -0.55629
C         26.92544        21.11736        -0.50381
C         28.12549        23.32954        -1.00130
C         26.86357        22.50343        -1.07672
C         28.03626        24.76706        -0.61134
C         26.65974        25.32493        -0.25043
C         27.71452        27.49226         0.43268
C         26.67679        26.79786        -0.38924
C         27.85816        28.95587         0.07101
C         26.63828        29.64048        -0.33220
C         27.88914        31.84389        -0.30988
C         26.59912        31.11734        -0.21245
C         27.84553        33.32395        -0.26153
C         26.72638        34.00686        -0.71396
C         27.95815        36.15771        -0.79584
C         26.81054        35.43369        -1.00598
C         28.03344        37.66095        -0.91088
C         26.89972        38.27977        -1.66652
C         28.23240        40.41148        -1.65945
C         26.99629        39.67593        -1.99569
C         28.18247        41.85854        -1.62748
C         26.98953        42.56294        -1.66962
C         28.28325        44.76595        -1.29365
C         26.96556        44.00655        -1.17582
C         28.30713        46.17674        -1.15353
C         27.01582        46.92784        -0.88545
C         28.39487        49.02147        -0.50562
C         27.19543        48.44736        -0.94402
C         28.39977        50.28440         0.13490
C         27.16597        50.90837         0.48818
C         28.36003        52.80273         1.51546
C         27.14592        52.12845         1.20743
C         28.31681        54.16842         1.98486
C         27.12845        54.86472         2.18123
C         27.07103        56.26448         2.48091
C         29.53028        12.61506         0.54758
C         30.72192        14.78594         0.40867
C         29.52048        14.04656         0.42255
C         30.72993        16.19557         0.26203
C         29.48092        16.90432         0.14467
C         30.68982        19.02649        -0.13818
C         29.46117        18.29458        -0.09557
C         30.70119        20.42724        -0.35403
C         29.44444        21.09368        -0.74933
C         30.65895        23.44536        -0.63163
C         29.43145        22.58567        -0.92956
C         30.33542        24.51165         0.44975
C         29.18308        25.45047         0.06061
C         30.14895        27.48135         1.24492
C         29.05587        26.73517         0.48174
C         30.24670        28.94967         0.81725
C         29.03806        29.62572         0.35245
C         30.26447        31.87308         0.59258
C         29.12957        31.08043         0.03932
C         30.34337        33.32063         0.25858
C         29.06562        34.04643         0.12274
C         30.46346        36.17525        -0.27913
C         29.13252        35.53637        -0.16134
C         30.56029        37.52179        -0.71598
C         29.39230        38.17454        -1.45476
C         30.64645        40.40101        -1.22913
C         29.39876        39.70049        -1.43223
C         30.68894        41.77034        -1.27510
C         29.50352        42.58489        -1.74422
C         30.71535        44.72811        -1.14277
C         29.49050        44.04045        -1.29901
C         30.74949        46.12976        -1.08200
C         29.54659        46.85774        -1.05963
C         30.87414        48.84821        -0.17603
C         29.66774        48.37602        -0.97066
C         30.82144        50.10461         0.50299
C         29.63242        50.86286         0.62471
C         29.58411        52.13164         1.25693
C         31.93679        16.93915         0.23946
C         33.14070        19.10093         0.07886
C         31.93126        18.33299         0.07556
C         33.13165        20.47264        -0.05540
C         31.89345        21.18105        -0.25719
C         33.01868        23.33498         0.15687
C         31.87379        22.61953        -0.22921
C         32.92249        24.71836         0.55955
C         31.58548        25.27570         0.87267
C         32.74998        27.50610         1.29596
C         31.49165        26.73661         1.24234
C         32.64053        28.95763         1.53056
C         31.41448        29.63947         1.05157
C         32.77737        31.82207         0.94882
C         31.47459        31.12638         1.04727
C         32.78978        33.18239         0.36800
C         31.53857        33.98841         0.28334
C         32.87924        36.10466         0.11129
C         31.62467        35.42890         0.04568
C         32.91343        37.50853        -0.08221
C         31.78366        38.19273        -0.59454
C         33.07048        40.37801        -0.58225
C         31.93120        39.57829        -1.19436
C         33.26146        41.76210        -1.20172
C         31.94363        42.49037        -0.94725
C         33.26823        44.67841        -0.85769
C         31.96030        43.97195        -0.88206
C         33.28962        46.04346        -0.89497
C         32.06889        46.88589        -1.14657
C         32.03229        48.11517        -0.27610
C         34.43940        21.22309        -0.12690
C         35.43508        23.43558         0.44240
C         34.30957        22.69152         0.20160
C         35.36783        24.84291         0.72709
C         34.06489        25.46628         0.84814
C         35.21229        27.62853         1.43662
C         33.98171        26.87321         1.21081
C         35.18441        28.97899         1.70810
C         33.91899        29.75164         1.71464
C         35.22888        31.84869         1.16071
C         33.96067        31.17601         1.26615
C         35.32327        33.18163         0.73832
C         34.11400        33.89005         0.26016
C         35.35332        36.00385         0.25050
C         34.13108        35.37368         0.25353
C         35.43733        37.46191         0.41328
C         34.15070        38.23218         0.27437
C         35.56111        40.36758         0.02412
C         34.23290        39.70219         0.04285
C         35.60028        41.75684        -0.21471
C         34.45243        42.50133        -0.60049
C         34.45021        43.89064        -0.59683
C         36.52910        25.56636         0.94235
C         37.68522        27.59799         1.61714
C         36.50952        26.94550         1.33821
C         37.71322        28.95225         2.26880
C         36.41881        29.72494         2.03486
C         37.75188        31.84118         1.43152
C         36.45094        31.19674         1.67458
C         37.79281        33.16642         0.97355
C         36.57780        33.84342         0.65852
C         37.94398        35.99319         0.23798
C         36.61061        35.22748         0.17705
C         37.91417        37.45671         0.34459
C         36.73676        38.18110         0.29817
C         36.72697        39.60600         0.20650
C         38.95284        29.74865         1.94921
C         40.22776        31.81005         1.53814
C         38.96727        31.09540         1.66207
C         40.26889        33.13149         1.23345
C         39.06538        33.88069         0.92403
C         39.12054        35.23283         0.67951
O         22.38354        24.95384         0.40867
O         28.80609        31.37136        -1.36536
O         25.95536        36.51946        -3.06200
O         22.05596        17.79387         2.01060
O          8.50947        30.98831        -0.35635
O         33.52209        33.25723        -0.92537
O         18.45976        28.96566        -3.07789
O         30.49565        31.67309         2.02673
O         10.68642        32.14430        -1.19051
O         20.01337        35.72377        -3.95334
O         17.84652        26.22911         0.72492
O         10.31919        27.10887         2.62264
O         25.73835        31.62882         0.85655
O         26.18383        22.67380        -2.34998
O         22.35360        20.19421        -1.84595
O         23.06182        10.19914         2.65235
O         19.96533        40.00645        -3.74751
O         23.00250         6.87860        -0.41765
O         26.32055        21.04099         0.85437
O         31.83393        43.14472         0.35945
O         22.65541        42.53882        -3.50994
O         17.62046        16.06631        -0.93818
O         20.11656        46.60348         1.90711
O         22.38039        34.32784        -3.48120
O         20.53693        20.14302         1.31006
O         16.55437        23.84661         1.73995
O         25.38526        44.53534        -3.08968
O         37.38501        35.47468        -1.03948
O         21.59012        14.48641         2.35372
O         26.89030        13.11520        -0.89021
O         25.01531        49.02633        -1.75091
O         33.47813        41.62897        -2.58136
O         25.81602        52.97948         3.05490
O         20.81238        27.42979        -0.08530
O         33.06177        29.44180         2.86059
O         25.02463        10.15585        -0.60639
O         36.24066        30.72668         3.08786
O         24.02482        49.90899         1.59135
O         12.76192        22.77229         2.42959
O         18.63168        49.03364         2.70308
O         19.75405        50.40858        -0.44713
O         11.34127        28.92128        -0.36871
O         23.87650        56.98345         1.16688
O         29.59969        21.73919        -2.10845
O         31.48379        25.67913         2.29052
O         26.50419        40.05260        -3.35361
O         33.18587        40.38997         0.85117
O         11.35771        36.67933         1.29843
O         15.90776        33.25684        -3.09479
O         17.13401        20.35368        -1.50500
O         17.14603        31.06881        -3.18845
O         28.85043        35.03882         1.19704
O         28.19707        24.40685        -2.00089
O         13.95656        28.60354         2.00977
O         34.66859        37.88360         1.60193
O         21.72813        39.55387        -0.65285
H         22.49899        39.07030        -0.28675
O         26.81041        46.76277         0.57628
H         27.68153        46.84602         1.02069
O          9.49589        38.31658         1.82684
H         10.12719        37.67260         2.23163
O         16.58381        38.28258        -3.79717
H         16.78072        37.42087        -4.22162
O         22.46521        33.53519         0.10972
H         23.04694        33.07136         0.75009
O         25.21611        18.46710        -1.60477
H         25.87037        18.80495        -2.25181
O         26.71236        43.89174         0.25909
H         27.48949        43.46355         0.67603
O         24.74985        18.77372         2.01583
H         23.91339        18.62330         2.51814
O         18.71139        43.53888         1.40601
H         18.03842        43.90056         2.02210
O         22.14608        54.31722         4.00794
H         22.33647        53.35441         4.04117
O         15.63948        46.39879        -1.07668
H         14.79430        46.02823        -1.41016
O         13.23340        41.95607        -2.66462
H         13.99408        41.50245        -3.08738
O         12.39291        31.54685         1.93262
H         13.23509        31.15780         2.25339
O         25.92490        27.50944        -2.55279
H         25.19170        27.94192        -3.03968
O         26.03835        11.85888         2.45480
H         25.19334        11.60246         2.88325
O         14.69318        13.81542         1.31502
H         14.87008        14.02162         2.25543
O         37.79573        28.69435         3.71039
H         37.40180        29.48420         4.14879
O         15.21668        35.11853         0.27875
H         14.49658        34.96003         0.92726
O         34.97586        21.08697        -1.46203
H         34.32688        21.46799        -2.08903
O          7.91238        31.51083         3.17357
H          7.32510        31.10539         3.84527
O         29.85456        48.85944        -2.33390
H         30.71809        48.48672        -2.64944
O         22.89760        45.53167        -3.11108
H         22.93259        44.87976        -3.84462
O         23.81098        45.04220         0.36759
H         24.15663        45.65091         1.05442
O         13.43958        20.31516         3.03900
H         13.29115        21.25460         3.30162
O         21.99176        51.46623        -1.01945
H         21.03576        51.47783        -1.27318
O         20.01587        42.48041        -3.65022
H         20.54767        42.10061        -4.38320
O         25.98631        16.29119         2.28979
H         25.79071        17.23281         2.52782
O         22.49971         7.75139         3.05195
H         22.88646         8.54625         3.48937
O         29.85197        23.75987         1.58198
H         30.06245        24.27946         2.39173
O         17.25553        24.56025        -2.38539
H         17.49720        23.76923        -2.91409
O         31.00474        24.16381        -1.83494
H         30.70246        23.62575        -2.59938
O         32.26345        39.33692        -2.58747
H         32.70609        40.18771        -2.91511
O         29.71656        42.68128        -3.20267
H         28.85440        42.88353        -3.62618
O         23.33338        57.96374         4.66590
H         23.28154        58.80179         5.17151
O         19.29082        26.42017        -3.29237
H         18.47405        25.92784        -3.53409
O          8.52387        37.51172        -1.58749
H          7.79341        36.97319        -1.95471
O         29.51209        37.76129        -2.83125
H         30.34947        38.14303        -3.18088
O         27.20329        27.47718         1.82023
H         27.97953        27.66267         2.41463
O         29.72872        27.55352         2.64214
H         30.18248        26.81999         3.12031
O         27.92665        38.15516         0.46913
H         28.41135        37.53634         1.05856
O         22.90491        14.53876        -1.02222
H         23.70077        14.77409        -1.54531
O         26.48527        24.96335         1.16421
H         26.47813        25.80145         1.69538
O         22.08874        38.43173        -4.13283
H         21.83651        37.58853        -4.56499
O         15.18001        45.47425         2.45502
H         14.51823        45.75346         3.12155
O         32.18108        47.37115        -2.54365
H         32.24165        46.58281        -3.12532
H          5.12872        31.45992         2.03608
H          5.08943        33.79882         1.31858
H          7.62163        27.11654         0.57144
H          6.31168        29.18586         1.80317
H          6.30911        35.92489         0.72060
H          7.51479        37.99387         0.19254
H         10.04948        22.91031         0.48036
H          9.02091        24.76001         0.59974
H          8.82158        40.25058         0.07023
H         10.00983        42.25181        -0.19629
H         12.53158        18.21348         1.59452
H         11.55096        20.47224         0.26280
H         11.28730        44.25235         0.12274
H         12.58792        46.07155         1.01584
H         15.48601        14.13704        -0.54926
H         13.65403        16.08847         1.17706
H         13.85729        48.11567         1.57750
H         14.98356        50.25189         1.61243
H         17.49200         9.70983         1.28506
H         16.19466        11.80446         1.11414
H         16.18719        52.50139         1.74691
H         17.42639        54.60405         2.24506
H         19.97234         5.45105         1.42831
H         18.74350         7.62495         1.27820
H         18.65640        56.70331         2.69718
H         19.89833        58.88649         2.75651
H         23.50142         2.15238         1.30004
H         21.34135         3.31195         1.63001
H         23.30125        62.24611         3.16540
H         21.14299        61.05600         3.01210
H         25.58659         3.37329         0.80609
H         26.78430         5.54591         0.54221
H         26.75074        58.93759         2.85825
H         25.46365        61.05778         3.01541
H         28.02209         7.68771         0.53528
H         29.30994         9.88417         0.74755
H         29.27102        54.70762         2.08458
H         28.01963        56.80128         2.63603
H         30.50849        12.11518         0.62210
H         31.68175        14.25508         0.49675
H         31.74757        50.48819         0.95912
H         30.52700        52.60981         1.56221
H         32.89556        16.41322         0.36047
H         34.09944        18.57495         0.20127
H         34.25261        46.57398        -0.83197
H         32.95602        48.45168         0.21905
H         35.18819        20.74964         0.55807
H         36.42367        22.95345         0.42211
H         36.56322        42.28218        -0.10361
H         35.36083        44.42945        -0.28606
H         37.50238        25.05930         0.86647
H         38.63556        27.04872         1.53772
H         38.87400        37.98855         0.43572
H         37.69907        40.12102         0.15998
H         39.91284        29.23285         2.10647
H         41.15667        31.25512         1.73429
H         41.23256        33.65897         1.18114
H         40.07571        35.76793         0.79482
