         349
 CSIRO Nanostructure Databank - Neutral Graphene Oxide Data Set
C          1.32567         2.00654        -0.47701
C          1.18551         3.44064        -0.29724
C          2.45011         1.34520        -0.12443
C          2.26878         4.20875         0.02356
C          1.01579         6.44693        -0.20292
C          1.02718         7.77654        -0.45169
C          2.24615         5.71528         0.26636
C          2.25428         8.55616        -0.48279
C          1.17807        10.69195         0.12633
C          1.29400        12.01683         0.47470
C          2.31809         9.92470        -0.28305
C          2.48753        12.77699         0.24952
C          1.99172        14.50758         2.00948
C          2.32627        15.71996         2.60980
C          2.53718        14.15485         0.75337
C          3.24366        16.61004         2.01143
C          3.70859        17.80503         2.69890
C          3.55054         2.07192         0.63635
C          3.55517         3.54252         0.21105
C          4.90522         1.41849         0.59310
C          4.71930         4.24008         0.04072
C          3.52032         6.37029        -0.24472
C          3.49107         7.77091        -0.73911
C          4.69201         5.67296        -0.23937
C          4.76417         8.49550        -1.09312
C          3.67673        10.60824        -0.19322
C          3.62266        12.13341        -0.30223
C          4.72075        10.02289        -1.16761
C          4.84182        12.78475        -0.65278
C          3.30895        15.13705         0.10200
C          3.74118        16.32100         0.71595
C          4.94457        14.18925        -0.86531
C          4.82238        17.14482         0.13141
C          4.49600        18.71377         2.08943
C          4.91103        18.58310         0.63880
C          5.95270         2.04342        -0.27073
C          6.01135         3.51024         0.16897
C          7.31659         1.38719        -0.33083
C          7.30667         4.23117         0.09834
C          5.95737         6.32994        -0.64365
C          6.04405         7.81391        -0.77202
C          7.23478         5.60120        -0.48617
C          7.22235         8.47089        -0.58417
C          6.06732        10.67186        -0.88621
C          6.07833        12.02849        -0.74990
C          7.36315         9.90387        -1.04603
C          7.37254        12.77912        -0.98457
C          6.11727        14.94111        -0.64134
C          6.08427        16.41536        -0.44977
C          7.36096        14.24146        -0.56315
C          7.37884        17.09882        -0.25102
C          6.25583        19.21041         0.42011
C          7.40790        18.51379         0.05451
C          8.51091         2.05758        -0.38504
C          8.64838         3.51958         0.01258
C          9.78460         1.40310        -0.52428
C          9.68003         4.25438        -0.81269
C          8.48320         6.37011        -0.58988
C          8.37070         7.70078         0.11096
C          9.57149         5.61773        -1.11764
C          9.68137         8.45617         0.36221
C          8.53671        10.64520        -0.42938
C          8.54620        11.99728        -0.45353
C          9.74028         9.91740         0.08048
C          9.80711        12.72361        -0.16995
C          8.55518        14.93556        -0.39040
C          8.58175        16.37346        -0.28299
C          9.83306        14.20637        -0.22207
C          9.85347        17.05241        -0.24517
C          8.66587        19.17840         0.07513
C          9.87702        18.47988        -0.09911
C         10.98397         2.10537        -0.59970
C         11.03239         3.59617        -0.91804
C         12.22262         1.42182        -0.54026
C         12.16629         4.30840        -0.11630
C         10.99755         6.37700         0.80574
C         10.97839         7.70951         0.40537
C         12.17838         5.53206         0.49770
C         12.25093         8.40396         0.20027
C         11.07403        10.53746        -0.14351
C         11.04352        11.96104        -0.52951
C         12.26068         9.84993        -0.06950
C         12.30756        12.70307        -0.77952
C         11.10973        14.90233        -0.52030
C         11.08712        16.35610        -0.44497
C         12.26952        14.19194        -0.72571
C         12.29481        17.07474        -0.50123
C         11.11849        19.17230        -0.09763
C         12.32585        18.49150        -0.29807
C         13.45459         2.09530        -0.45271
C         13.45388         3.58435        -0.35736
C         14.67663         1.39811        -0.47557
C         14.72894         4.24195         0.06713
C         13.43602         6.29147         0.92400
C         13.43519         7.73769         0.42177
C         14.72686         5.60487         0.60534
C         14.67774         8.54324         0.73349
C         13.55499        10.54073        -0.25939
C         13.59756        11.97915        -0.59179
C         14.72894         9.85710        -0.03683
C         14.77140        12.67809        -0.66538
C         13.51937        14.89078        -1.06936
C         13.54149        16.39347        -0.88452
C         14.80877        14.12179        -1.02537
C         14.83891        17.07181        -0.66579
C         13.58124        19.18266        -0.34344
C         14.80078        18.52482        -0.50342
C         15.93643         2.00955        -0.21724
C         15.91095         3.38419         0.32817
C         17.16058         1.35348        -0.34583
C         17.22347         4.12265         0.56970
C         15.94699         6.30368         0.71629
C         15.96205         7.73726         0.72401
C         17.20107         5.60811         0.63410
C         17.17479         8.41616         0.81902
C         16.05269        10.51139        -0.23621
C         16.12263        11.99050        -0.69382
C         17.24437         9.84049         0.37839
C         17.22522        12.83533        -0.03351
C         16.09007        14.89886        -0.81711
C         16.02019        16.37792        -0.65401
C         17.26588        14.19258        -0.22117
C         17.31997        17.10152        -0.80053
C         16.02847        19.23605        -0.47089
C         17.26057        18.57857        -0.54011
C         18.41442         2.05041        -0.23360
C         18.41962         3.41370         0.13305
C         19.65923         1.39520        -0.51468
C         19.60112         4.23331        -0.12945
C         18.40848         6.31621         0.73553
C         18.41054         7.72148         0.92190
C         19.67538         5.55441         0.57258
C         19.67714         8.46463         1.16598
C         18.35820        10.68189         0.91295
C         18.32637        12.16766         0.71930
C         19.69623        10.01146         1.28544
C         19.65876        12.90167         0.90751
C         18.47659        14.98511         0.07530
C         18.50837        16.42150        -0.18096
C         19.63549        14.32972         0.42643
C         19.66678        17.16130        -0.04021
C         18.47006        19.28201        -0.44998
C         19.70374        18.59338        -0.32107
C         20.89830         2.06878        -0.54520
C         20.87327         3.55151        -0.54776
C         22.13476         1.38970        -0.50535
C         22.16764         4.30134        -0.46910
C         20.97900         6.28148         0.59087
C         20.97792         7.75046         0.89752
C         22.19617         5.68980         0.00603
C         22.19084         8.51362         0.51212
C         20.84497        10.63658         0.46822
C         20.80565        12.11512         0.24733
C         22.15080         9.91375         0.40249
C         22.10390        12.86094        -0.12078
C         20.92723        15.02219         0.59685
C         20.93072        16.54755         0.40424
C         22.17394        14.30976         0.32511
C         22.20243        17.19167         0.05989
C         20.92453        19.27365        -0.34810
C         22.18011        18.59811        -0.24211
C         23.40107         2.04125        -0.32038
C         23.45631         3.52309        -0.41619
C         24.55476         1.36100        -0.00123
C         24.67392         4.24791        -0.01173
C         23.40256         6.37617         0.10188
C         23.40391         7.81105         0.31231
C         24.66323         5.67489         0.02215
C         24.62666         8.52825         0.21653
C         23.36083        10.63000         0.26015
C         23.33423        12.10394         0.36262
C         24.60219         9.95245         0.23663
C         24.65069        12.85377         0.26516
C         23.38962        15.00832         0.18250
C         23.39862        16.46405         0.07022
C         24.62568        14.30421         0.00778
C         24.63621        17.14274        -0.20294
C         23.39255        19.27404        -0.40681
C         24.62675        18.57272        -0.38951
C         25.78800         2.05803         0.51775
C         25.85014         3.53349         0.19930
C         27.08337         1.35787         0.22919
C         27.09038         4.23167         0.25808
C         25.87974         6.38592         0.17685
C         25.87524         7.82341         0.18892
C         27.11342         5.65943         0.23082
C         27.09214         8.55435         0.17959
C         25.84199        10.68074         0.07505
C         25.84509        12.07049        -0.02181
C         27.08569         9.94600         0.02194
C         27.05419        12.75150        -0.59369
C         25.86015        14.97458        -0.24830
C         25.84972        16.43037        -0.33639
C         27.05421        14.25336        -0.43908
C         27.05222        17.12571        -0.64163
C         25.83493        19.25663        -0.62114
C         27.05175        18.56185        -0.76126
C         28.28915         2.04809         0.26901
C         28.31213         3.49858         0.31575
C         29.55074         1.36164         0.28441
C         29.54267         4.19525         0.35743
C         28.36336         6.34807         0.27420
C         28.39437         7.84807         0.49692
C         29.55555         5.62916         0.29949
C         29.57411         8.55106        -0.20268
C         28.32793        10.70999         0.05808
C         28.30861        12.08274        -0.07367
C         29.58925        10.01059         0.22043
C         29.46126        12.91922         0.40086
C         28.31877        14.93544        -0.77022
C         28.25452        16.41199        -0.92381
C         29.65374        14.21384        -0.39675
C         29.34774        17.14700        -1.36641
C         28.26939        19.26461        -0.99883
C         29.44589        18.56534        -1.26013
C         30.73531         2.05004         0.45412
C         30.76507         3.46705         0.51166
C         31.98095         4.18934         0.78282
C         30.87269         6.31917         0.24400
C         30.90628         7.81315         0.01931
C         32.03517         5.54838         0.73221
C         32.07299         8.61527         0.44875
C         30.75258        10.69449         0.52426
C         30.74443        12.14304         0.62459
C         31.99760         9.94634         0.66351
C         31.86156        12.89462         0.92065
C         30.93445        14.92510        -0.11107
C         31.19307        16.22543        -0.70499
C         31.90419        14.29383         0.64603
C         31.99147        17.24952        -0.25904
C         30.76100        19.18911        -1.27245
C         31.89520        18.58967        -0.79242
O         20.50112         7.94436         2.27399
O         29.15558        14.20478        -1.75109
O         20.52564         5.47744         1.76156
O          5.08112        17.09941        -1.28790
O          3.75456        14.86108        -1.20415
O          6.54821         5.60735        -1.80722
O         31.18531         6.91343        -1.10729
O         15.69337        14.43851        -2.15263
O         11.49766        12.18805        -1.91230
O          3.97575         7.86729        -2.15111
O         14.31330         4.21616        -1.36848
O         13.42372        15.77183        -2.22564
O         16.45261         3.49440         1.66406
O          9.88048        13.46500         1.08805
O         30.46017        16.47030        -1.88488
O         22.95581         4.06625        -1.68777
O          9.52473         9.42244         1.47098
O         20.00008         4.19021        -1.54628
O         17.04023         9.77347        -1.07832
O         20.93594        15.94987         1.73431
O          6.68643         3.94028         1.40257
O         20.38168        11.20306        -0.81698
O         23.97582        12.56507         1.57094
O         17.66397        16.96827        -2.33019
O         17.85326        11.55795         1.97203
O          9.98658         5.90649         1.54647
H          9.96552         4.91152         1.61403
O         16.46802        11.97135        -2.10119
H         17.03338        11.17838        -2.25469
O         25.64766         1.99855         2.00455
H         26.47117         2.37002         2.38796
O         28.62505         8.02848         1.93036
H         27.85877         7.64876         2.40995
O         14.53774         8.96123         2.14264
H         14.34456         8.13445         2.64886
O         10.56220         6.20810        -1.85666
H         10.33299         7.13975        -2.04625
O         19.96685        13.00662         2.30800
H         19.49573        12.27128         2.77379
O          4.18075        10.30683         1.14310
H          3.53035        10.64710         1.79317
O          3.13137         2.04497         2.03244
H          2.18983         2.31681         2.06685
O          7.66821         9.84349        -2.47413
H          7.66263        10.77617        -2.80238
O         11.49861         3.65562        -2.28517
H         11.55408         4.60197        -2.54378
O         22.18539        12.89067        -1.56939
H         21.62414        12.15331        -1.90889
O          4.35277        10.40234        -2.50819
H          4.05173         9.58214        -2.96718
O         29.04446        13.40221         1.73202
H         28.96831        12.62350         2.32374
O         19.94780        10.33335         2.66232
H         20.38795         9.54706         3.07001
O         16.47899        17.21811        -3.09038
H         16.05355        16.32209        -3.15929
O          7.54182        12.78641        -2.44816
H          6.75516        13.22497        -2.83890
O         27.02507        12.50771        -2.04626
H         27.85282        12.90260        -2.41163
O          2.26429         5.87144         1.72668
H          3.05414         5.39579         2.06349
O          5.46823         2.12918        -1.64350
H          5.45026         1.22312        -2.01521
O          3.93646        19.34197        -0.14303
H          4.08450        19.09351        -1.08211
O          7.82038         7.39849         1.42883
H          8.12971         8.11581         2.02929
O          9.18055         3.42521         1.38668
H          8.38430         3.34679         1.96933
O         13.38013         6.41468         2.39662
H         12.51047         6.81600         2.61720
O         29.29747         8.56502        -1.61756
H         29.86652         7.87003        -2.02713
H          0.48309         1.46186        -0.92870
H          0.20392         3.89308        -0.49556
H          2.52180         0.25497        -0.24873
H          0.05422         5.91311        -0.19458
H          0.07579         8.29082        -0.65752
H          0.20110        10.19632         0.21324
H          0.40979        12.54652         0.85716
H          1.35589        13.79154         2.54943
H          1.92107        15.96157         3.60255
H          3.39021        17.95601         3.74145
H          5.23589         0.96826         1.54399
H          4.81288        19.61961         2.62712
H          7.32144         0.30983        -0.56590
H          6.34217        20.28263         0.65259
H          9.81981         0.30374        -0.45641
H          8.69074        20.26192         0.26246
H         12.22049         0.32058        -0.52520
H         11.12236        20.26461         0.02989
H         14.65619         0.31711        -0.68209
H         13.57903        20.27576        -0.21952
H         17.17433         0.30950        -0.69232
H         16.00844        20.32793        -0.33430
H         19.65095         0.30121        -0.63492
H         18.46257        20.38212        -0.43317
H         22.11890         0.28908        -0.47249
H         20.92661        20.35807        -0.53288
H         24.52876         0.26307         0.08098
H         23.39360        20.35763        -0.59539
H         27.09105         0.25779         0.19089
H         25.81995        20.34917        -0.74779
H         29.55484         0.26362         0.22721
H         28.27621        20.36237        -0.93293
H         31.68216         1.49646         0.53712
H         32.88005         3.61337         1.04869
H         32.98461         6.06924         0.91869
H         33.04011         8.10224         0.54837
H         32.90859        10.48785         0.95321
H         32.79425        12.41843         1.25312
H         32.84221        14.83003         0.85283
H         32.70181        17.07574         0.56272
H         30.80418        20.26383        -1.50830
H         32.78619        19.22645        -0.66839
