         349
 CSIRO Nanostructure Databank - Neutral Graphene Oxide Data Set
C          1.28394         3.47335        -0.89258
C          0.05630         4.11278        -0.84370
C          1.13222         6.24640        -0.31422
C         -0.02250         5.48548        -0.56332
C          1.05310         7.68133        -0.05198
C         -0.10080         8.42252        -0.07520
C          1.04585        10.58866         0.13906
C         -0.10650         9.84914         0.17275
C          1.14008        12.02292         0.42695
C         -0.00117        12.76109         0.96440
C          1.35199        14.83445         1.21842
C          0.08800        14.06415         1.30863
C          1.33373        16.33730         1.02690
C          0.06407        17.08718         1.02474
C          1.19357        19.20016         0.49555
C          0.03259        18.43828         0.82972
C          1.15027        20.59417         0.27556
C         -0.01759        21.38330         0.37478
C          1.16512        23.53924         0.17776
C         -0.00453        22.78541         0.32041
C          1.23094        24.96390         0.46482
C          0.05442        25.71908         0.82031
C          1.33365        27.78841         1.06646
C          0.10744        27.08892         1.03117
C          1.41784        29.18710         1.25392
C          3.74371         3.55454        -0.72806
C          2.48038         4.20076        -0.64833
C          3.63392         6.31914        -0.11160
C          2.40390         5.59486        -0.34602
C          3.61161         7.71381         0.10846
C          2.30406         8.42871         0.35955
C          3.57992        10.54072         0.01025
C          2.29856         9.81769        -0.26453
C          3.51701        11.98600        -0.24381
C          2.32591        12.70028         0.25531
C          3.71041        14.84844         0.15773
C          2.61660        14.04949         0.88102
C          3.65451        16.29788         0.09408
C          2.51685        16.99568         0.41817
C          3.74184        19.17426         0.44270
C          2.44142        18.46700         0.04315
C          3.68385        20.65223         0.33046
C          2.41057        21.28365        -0.09181
C          3.70559        23.51427        -0.01129
C          2.41318        22.81487        -0.12965
C          3.67505        24.97396        -0.07534
C          2.45027        25.64425         0.39637
C          3.85201        27.74079         0.77549
C          2.59428        26.97209         1.08933
C          3.87162        29.15130         1.01461
C          2.63515        29.84279         1.27234
C          6.20190         3.59416        -0.59340
C          4.94122         4.23655        -0.46931
C          6.07354         6.34579         0.20841
C          4.88627         5.64389        -0.13047
C          6.04825         7.74036         0.36015
C          4.81279         8.43402         0.24713
C          6.02600        10.64706         0.10903
C          4.77321         9.89896         0.20261
C          6.04116        11.94437        -0.33001
C          4.78785        12.70790        -0.48011
C          6.08336        14.86028        -0.58878
C          4.83196        14.18010        -0.28951
C          6.11668        16.26644        -0.60202
C          4.83038        17.05425        -0.51909
C          6.33489        19.07780        -0.12362
C          5.03061        18.41164         0.17357
C          6.64681        20.40614         0.26547
C          4.76329        21.45210         0.57337
C          6.21662        23.46841         0.10018
C          4.90046        22.83728         0.18791
C          6.25154        24.85784         0.02168
C          5.00291        25.66372        -0.01190
C          6.27093        27.75550         0.37793
C          5.03167        27.07491         0.43696
C          6.29626        29.16738         0.62512
C          5.08634        29.84372         0.92690
C          8.64300         3.60574        -0.34982
C          7.40311         4.22797        -0.21179
C          8.60507         6.26671         0.84340
C          7.31656         5.56443         0.43322
C          8.57515         7.77670         1.04542
C          7.26539         8.48944         0.78744
C          8.59745        10.67903         0.25620
C          7.28171         9.98023         0.54828
C          8.54562        11.94544        -0.45754
C          7.27044        12.59982        -0.89572
C          8.48729        14.81043        -1.00243
C          7.28760        14.12082        -0.78321
C          8.51690        16.23672        -1.10465
C          7.30511        16.96879        -0.92320
C          8.49266        19.18453        -1.31273
C          7.33486        18.41040        -0.83358
C          8.68597        20.62073        -1.02267
C          7.63823        21.23618        -0.26700
C          8.51037        23.46346        -0.88859
C          7.60427        22.72927         0.11407
C          8.65572        24.94874        -0.56161
C          7.47641        25.61394        -0.11923
C          8.67814        27.76610        -0.11576
C          7.47211        27.03802         0.04024
C          8.69897        29.18107         0.14217
C          7.52211        29.85877         0.52202
C         11.09018         3.53264        -0.12319
C          9.88037         4.23629         0.02791
C         11.13819         6.26287         0.75308
C          9.86602         5.57154         0.54394
C         11.15722         7.79534         0.86200
C          9.88835         8.62275         1.08969
C         11.05153        10.54098        -0.07788
C          9.86154         9.90455         0.25822
C         11.05179        11.92100        -0.52061
C          9.78108        12.54046        -0.89688
C         11.01903        14.78093        -0.95510
C          9.75779        14.06910        -1.15750
C         10.97077        16.22231        -1.06787
C          9.76281        16.92011        -1.28704
C         11.05590        19.11923        -1.61079
C          9.78628        18.36594        -1.59303
C         11.15201        20.55436        -1.58426
C          9.91348        21.30162        -1.35150
C         10.77331        23.60165        -1.74317
C          9.84037        22.76588        -1.19329
C         10.94785        25.05021        -1.52810
C          9.79235        25.70126        -0.87229
C         11.07737        27.81142        -0.68602
C          9.86459        27.10203        -0.56884
C         11.10314        29.19354        -0.32296
C          9.92498        29.87104         0.03340
C         13.64808         3.39142         0.08706
C         12.35759         4.06799         0.48827
C         13.53603         6.28621         0.18846
C         12.37919         5.57294         0.36174
C         13.54962         7.73281         0.18951
C         12.36386         8.45971         0.34154
C         13.52965        10.53424        -0.29461
C         12.33962         9.85531        -0.00940
C         13.50151        11.97398        -0.45981
C         12.22781        12.66256        -0.59196
C         13.55364        14.80664        -0.95310
C         12.21683        14.08452        -0.82352
C         13.44849        16.29498        -0.66388
C         12.19150        16.92947        -1.17480
C         13.98468        19.21019        -1.10440
C         12.16001        18.23405        -1.66365
C         13.70267        20.61028        -0.99976
C         12.51068        21.19678        -1.46604
C         13.67603        23.45388        -1.37055
C         12.67830        22.60533        -1.78508
C         13.72589        24.96075        -1.74972
C         12.32775        25.72253        -1.58206
C         13.53541        27.68186        -0.35035
C         12.37709        27.23896        -1.25130
C         13.55998        29.20049        -0.29268
C         12.34670        29.89013        -0.26531
C         16.12756         3.46127        -0.22261
C         14.81858         4.07696        -0.02119
C         16.06608         6.31850         0.10388
C         14.79094         5.56175        -0.08196
C         15.99936         7.77398         0.32692
C         14.80856         8.44984         0.15204
C         16.01941        10.59529        -0.09048
C         14.81933         9.89399        -0.04991
C         15.93407        11.95257        -0.79934
C         14.67767        12.68000        -0.46662
C         15.96614        14.88808        -0.12917
C         14.63828        14.13875        -0.08306
C         15.99027        16.27031        -0.09939
C         14.70823        17.01900        -0.24073
C         15.92873        19.21453         0.40479
C         14.83426        18.49014        -0.32972
C         15.98577        20.67397        -0.07919
C         14.89721        21.34109        -0.60937
C         16.19547        23.52730        -0.88397
C         14.94105        22.76261        -1.02434
C         16.13504        25.00904        -0.83280
C         14.91529        25.67680        -1.05604
C         16.03765        27.81876        -0.55530
C         14.87151        27.08053        -0.73242
C         16.02398        29.24269        -0.22942
C         14.75761        29.89746        -0.16492
C         18.60757         3.53955        -0.19498
C         17.30445         4.14711        -0.04390
C         18.52234         6.38344         0.16313
C         17.28891         5.54169         0.55280
C         18.50901         7.74717         0.84785
C         17.21403         8.50580         0.75102
C         18.62156        10.57775         0.64698
C         17.18917        10.04457         0.75275
C         18.99574        11.72888        -0.01028
C         17.12474        12.82598        -0.63799
C         18.49351        14.78937         0.13748
C         17.19501        14.11703        -0.20841
C         18.54958        16.30292        -0.18144
C         17.22051        17.04534         0.01802
C         18.49346        19.15847         0.30259
C         17.23604        18.42396         0.20511
C         18.49607        20.63187         0.47536
C         17.22795        21.42504         0.24432
C         18.63859        23.55172        -0.34036
C         17.32443        22.86359        -0.15869
C         18.58215        25.03149        -0.26286
C         17.34396        25.69145        -0.50420
C         18.62049        27.93173        -0.29217
C         17.34648        27.15497        -0.63827
C         18.57788        29.45078        -0.10917
C         17.17264        29.97758        -0.01634
C         19.77775         4.21907         0.02730
C         20.96848         6.33888         0.57311
C         19.81992         5.63183         0.32159
C         20.95763         7.75735         0.85629
C         19.80028         8.46386         1.00302
C         20.98895        10.67594         1.54258
C         19.68390         9.91348         1.51784
C         21.08604        11.99170         1.16840
C         20.05017        12.59254         0.39611
C         21.03936        14.92604         0.24055
C         19.82659        14.07492         0.34035
C         20.99182        16.26246         0.33739
C         19.69338        16.99720         0.59558
C         20.94768        19.19156         0.11067
C         19.71297        18.48724         0.29393
C         21.00874        20.54954         0.03452
C         19.83970        21.36080         0.37239
C         21.03391        23.63927         0.45216
C         19.89870        22.81865        -0.00091
C         20.94359        24.99487         0.48379
C         19.74556        25.72582         0.13425
C         20.48277        27.76802         1.32182
C         19.68961        27.15297         0.36693
C         20.28529        29.13630         1.69758
C         19.37790        29.92823         1.07367
O         15.90980        22.92803        -2.18055
O         11.70090        23.09611        -2.65308
O         15.56953         6.01572        -1.25151
O         13.37261        18.62516        -2.21350
O          9.77536        13.11427        -2.27444
O         19.23187        21.06997         1.66580
O         17.02167        22.51513         1.22826
O         11.47791        25.64969        -2.77437
O         18.93922        14.45967         1.49248
O          4.48724        18.54544         1.51876
O          3.92546        12.32703        -1.64303
O         18.27126        12.19527        -1.11666
O         19.49367        23.02560        -1.40715
O          2.37270        21.98420        -1.36125
O         13.66014        16.63354         0.75853
O          1.59055        15.71899         2.36423
O         18.32386        27.59412        -1.67353
O          5.86347        20.95121         1.28930
O         11.35594         6.95946         2.03831
O         17.66499         7.92513         2.04417
O          7.77176         5.55452         1.82692
O          8.88322        18.77850        -2.65904
O          4.28035        25.55194        -1.30423
O          7.92458        10.72195         1.62914
O          7.69109         8.13862         2.14363
O          2.26754         9.66222        -1.71120
H          2.57722        10.50448        -2.11190
O         13.98917        14.66006        -2.32863
H         13.22245        14.81118        -2.91999
O         19.42296        16.96544         2.01470
H         19.31493        16.01707         2.27492
O          2.23465         8.62779         1.80129
H          2.29482         7.75080         2.23404
O         16.79042        10.44802         2.11146
H         15.97015         9.96325         2.34659
O         12.61776        27.91400        -2.50610
H         12.04921        27.47913        -3.18110
O          2.77533        26.58911         2.52912
H          1.90311        26.26897         2.84761
O         19.29716         9.84811         2.91314
H         18.31136         9.92425         2.95802
O         19.18905        30.04587        -1.29445
H         18.90133        29.49001        -2.05491
O         17.23175         5.33106         1.97559
H         17.29495         6.21274         2.41844
O         14.20959        14.13165         1.29989
H         14.03925        15.07288         1.55872
O          7.16380        12.33483        -2.34843
H          8.01290        12.65274        -2.74788
O          2.37305        18.55930        -1.41049
H          1.46254        18.33424        -1.69255
O         12.23396         3.78419         1.93288
H         11.52497         4.36094         2.29289
O         15.65844        19.25977         1.82625
H         16.42797        19.67503         2.27065
O         18.87757        16.42070        -1.58982
H         18.10730        16.11839        -2.11506
O          3.23734        13.70576         2.16038
H          3.02825        14.44730         2.77602
O          8.15586        22.87091         1.43534
H          7.59006        22.35341         2.04830
O         15.86678        11.62151        -2.23113
H         16.77224        11.35058        -2.49950
O         14.02756        25.04662        -3.14996
H         13.22372        24.75866        -3.63748
O         10.02758         9.11246         2.43993
H          9.13959         9.45229         2.71023
O         13.23695        27.18248         0.98386
H         13.90895        27.53805         1.60223
O         18.39665         6.70401        -1.25113
H         18.18969         5.87697        -1.73636
O          7.77549        23.39165        -2.14129
H          8.29321        23.84482        -2.83931
O          4.53074        17.37278        -1.90635
H          4.45271        16.53213        -2.40341
H          1.34530         2.40001        -1.12193
H         -0.86662         3.54647        -1.03128
H         -1.01069         5.96462        -0.53836
H         -1.07232         7.94445        -0.27034
H         -1.08152        10.32743         0.35102
H         -0.95883        12.23668         1.08905
H         -0.79306        14.57732         1.71937
H         -0.85603        16.56479         1.31843
H         -0.92791        18.96086         0.94690
H         -0.98300        20.89290         0.56187
H         -0.96234        23.30087         0.47796
H         -0.92412        25.22150         0.83157
H         -0.82947        27.65071         1.16410
H          0.48730        29.76187         1.37661
H          3.77825         2.48724        -0.99311
H          2.66820        30.93053         1.42937
H          6.24007         2.56302        -0.97558
H          5.10695        30.93144         1.08926
H          8.68689         2.59130        -0.77331
H          7.55801        30.94099         0.71345
H         11.05533         2.49109        -0.47684
H          9.96899        30.94255         0.27740
H         13.65504         2.29031         0.08803
H         12.34479        30.98018        -0.11305
H         16.15997         2.39806        -0.51023
H         14.73262        30.99042        -0.03653
H         18.64978         2.47359        -0.46698
H         17.06731        31.05569         0.17937
H         20.73435         3.67866        -0.04129
H         21.93623         5.81608         0.60387
H         21.92653         8.25382         1.01481
H         21.80250        10.22777         2.13147
H         21.97741        12.57819         1.43801
H         22.00254        14.41800         0.08129
H         21.93891        16.81802         0.29451
H         21.86580        18.62164        -0.08287
H         21.93071        21.05328        -0.28884
H         21.94690        23.13628         0.80219
H         21.82012        25.57188         0.81074
H         21.23372        27.18620         1.87322
H         20.88131        29.53388         2.53186
H         19.24494        30.97452         1.38512
