         257
 CSIRO Nanostructure Databank - Neutral Graphene Oxide Data Set
C         30.39166        31.71797        -0.78496
C         30.57367        32.88087        -1.25467
C         30.70830        35.93550        -1.87288
C         30.72452        37.15921        -1.87516
C         30.52188        40.32381        -1.39104
C         30.45488        41.53583        -1.14097
C         32.53406        28.96942         0.56617
C         31.52525        29.61395         0.25178
C         32.70363        31.65878        -0.20529
C         31.44237        30.96731        -0.23935
C         32.82674        32.99894        -0.68484
C         31.71226        33.68330        -1.25643
C         33.09508        35.81310        -1.58811
C         31.85474        34.97084        -2.01475
C         33.09817        37.33088        -1.52283
C         31.82623        38.17406        -1.92157
C         32.79743        40.18759        -0.53223
C         31.60056        39.39471        -1.07014
C         32.75535        41.68739        -0.43641
C         31.55173        42.39674        -0.80957
C         32.76676        44.37450        -0.51954
C         31.68324        43.79263        -0.80289
C         35.34804        27.32892         1.38119
C         35.17300        28.70267         0.89500
C         33.93112        29.42554         0.49683
C         35.24004        31.53258         0.08103
C         33.88400        30.99977         0.52722
C         35.32600        32.98504        -0.28719
C         34.08969        33.75453        -0.58376
C         35.50607        35.85249        -0.78562
C         34.19263        35.08395        -0.89658
C         35.31068        37.31933        -0.38409
C         34.20030        38.01675        -0.76121
C         35.32334        40.26363        -0.10851
C         34.14258        39.51615        -0.63688
C         35.14685        41.66378         0.41097
C         33.93441        42.40606        -0.06714
C         35.15533        44.60689         0.32708
C         33.97913        43.82708        -0.08943
C         35.53059        45.89148        -0.27371
C         37.77353        27.20186         1.63768
C         36.38254        26.75172         1.72361
C         37.79810        28.75366         1.67918
C         36.44955        29.48749         1.22914
C         37.79487        31.48282         0.25062
C         36.46330        30.89570         0.70780
C         37.75570        33.00279         0.35998
C         36.55387        33.74048         0.05325
C         37.73804        35.86980         0.41724
C         36.55421        35.12362         0.03073
C         37.73916        37.25268         0.43590
C         36.46727        37.99685         0.28808
C         37.75974        40.26322         0.64055
C         36.49203        39.49369         0.44037
C         37.71564        41.62367         0.78100
C         36.41748        42.37754         0.84706
C         37.74168        44.59079         0.70385
C         36.44251        43.88951         0.79643
C         37.90091        45.93082         0.25647
C         36.63865        46.44224        -0.23016
C         40.04116        24.38872         0.68911
C         38.94646        25.00999         0.68653
C         39.95657        27.16183         0.14464
C         38.88654        26.45278         1.01195
C         40.09729        28.65350         0.49706
C         39.02835        29.35152         0.97838
C         40.28456        31.52457         0.68089
C         38.95878        30.88530         1.09829
C         40.18682        32.95224         0.29530
C         38.93265        33.69176         0.52754
C         40.18250        35.78479         0.83039
C         38.98311        35.13221         0.60398
C         40.12175        37.21745         1.33936
C         39.01778        37.99787         0.63334
C         40.22177        40.17932         1.33947
C         39.04866        39.51323         0.72862
C         40.27030        41.63949         1.24874
C         38.99716        42.38415         0.87846
C         40.17136        44.61013         1.51105
C         38.92399        43.85637         1.18991
C         40.16140        46.14769         1.44580
C         39.11521        46.62521         0.39383
C         40.34420        48.78340         0.42002
C         39.47238        47.94944         0.08892
C         42.62492        24.52397         0.91569
C         41.32951        24.92464         0.56746
C         42.66328        27.11412        -0.07110
C         41.32507        26.37431         0.08755
C         42.66072        28.58152         0.01756
C         41.33362        29.31169        -0.16306
C         42.66624        31.55635        -0.20938
C         41.49437        30.77071         0.24776
C         42.69752        32.95126        -0.14738
C         41.42654        33.70997         0.01506
C         42.77359        35.76349         0.73121
C         41.45919        35.06054         0.66317
C         42.78222        37.22309         1.12583
C         41.47901        37.93040         1.40154
C         42.80346        40.18702         1.46420
C         41.47140        39.44341         1.55452
C         42.83921        41.68899         1.48585
C         41.50944        42.39789         1.65406
C         42.58089        44.57923         0.72130
C         41.49586        43.88347         1.53242
C         42.65073        46.07452         1.09906
C         41.53804        46.83146         1.31414
C         42.77116        48.95782         0.99445
C         41.45652        48.43183         1.42944
C         43.72393        25.12844         0.94319
C         45.28050        27.17090         0.30822
C         44.00058        26.39076         0.24346
C         45.25307        28.66516        -0.05550
C         43.89583        29.30262        -0.36267
C         45.19643        31.58963        -0.56287
C         43.87482        30.80570        -0.54181
C         45.13337        33.01811        -0.18524
C         43.90703        33.69844        -0.23399
C         45.19577        35.90260        -0.08852
C         43.83940        35.20903        -0.20012
C         45.28313        37.30050         0.43910
C         44.06939        38.00353         0.95705
C         45.24440        40.27389         0.59695
C         43.92339        39.49730         0.63669
C         45.27112        41.64077         0.65330
C         44.08535        42.44064         1.11742
C         44.94871        44.39665        -0.10207
C         43.93648        43.85237         0.64111
C         45.21246        46.74707        -0.78253
C         44.45689        47.43557         0.18552
C         43.77731        48.66613         0.32543
C         47.55980        27.57109         1.10054
C         46.51665        26.90952         1.06008
C         47.73616        29.01431         0.89895
C         46.42659        29.56682         0.29489
C         47.71845        31.48807        -0.62895
C         46.50180        30.88012        -0.38286
C         47.78732        32.81568        -1.34522
C         46.29130        33.69255         0.31603
C         47.82135        35.80313         0.24417
C         46.49346        35.11951         0.01522
C         47.84642        37.30516         0.18395
C         46.53451        38.04536         0.06715
C         47.78297        40.25267         0.34745
C         46.47624        39.53984         0.15831
C         47.78510        41.71309         0.08876
C         46.51186        42.41258         0.40314
C         47.51331        44.46186        -0.75498
C         46.34581        43.85777        -0.05548
C         47.22219        45.68492        -1.29685
C         46.55146        46.77785        -1.19477
C         50.30834        29.12475         0.64252
C         48.98307        29.67811         0.49167
C         50.22203        31.43965        -0.85262
C         48.96957        30.83133        -0.28731
C         50.27273        32.92963        -1.09199
C         49.00679        33.80064        -1.13555
C         50.34879        35.77459        -0.28376
C         49.05060        35.00735        -0.14821
C         50.32381        37.29057        -0.17985
C         49.02188        37.99421         0.02708
C         50.27858        40.26567        -0.15100
C         49.06686        39.48619         0.20845
C         50.18722        41.62095        -0.48172
C         48.92228        42.36632        -0.30363
C         49.98020        44.28156        -1.36424
C         48.88559        43.93127        -0.39382
C         51.41545        29.59212         0.32609
C         52.73574        31.58434        -0.70593
C         51.78278        30.45496        -0.80505
C         52.65802        32.76693        -1.07319
C         51.56143        33.69826        -1.04264
C         52.60752        36.01301        -0.93656
C         51.55663        35.04173        -0.82754
C         52.61828        37.24621        -0.92768
C         51.43814        38.16883        -0.85465
C         52.67466        40.37004        -0.56136
C         51.60038        39.45770        -0.03842
C         52.51883        41.52674        -0.99189
C         51.36737        42.34723        -0.99391
C         51.08748        43.68746        -1.31012
O         45.97445        35.59779        -1.27198
O         44.49163        31.27359        -1.78638
O         43.55535        39.57580        -0.70672
O         45.06340        37.46526         1.88399
O         36.09895        38.65437         1.57161
O         44.61117        45.42997        -0.97534
O         48.51973        39.86122         1.54483
O         38.78198        31.30445         2.41322
O         31.91486        39.37694         0.32838
O         46.70436        43.52966         1.34470
O         43.78194        42.15368         2.51347
O         50.15440        31.94407        -2.19447
O         41.30393        31.16377         1.65140
O         39.29468        44.14543         2.59196
O         33.59872        36.62671        -2.71012
O         39.93090        42.06180        -0.17672
O         39.41163        38.76986        -0.52980
O         40.55163        33.36486        -1.09656
O         35.43637        31.88615        -1.30474
O         34.77724        28.84293        -0.50278
O         44.97013        26.33188        -0.81614
O         48.61313        35.05057         1.24312
O         50.72641        36.47565         0.94536
O         35.09452        40.17948        -1.54761
O         47.04342        33.06418        -2.28028
O         43.97508        46.51418         1.15031
O         41.95908        26.50591        -1.22639
O         42.27045        37.34847         2.48096
O         35.47306        41.82251         1.81656
O         43.29708        35.64542        -1.54236
O         46.41494        38.85834        -1.14129
O         42.37849        34.91382         1.83395
O         46.78325        29.73686         1.71410
O         44.78749        28.76213        -1.42213
O         41.62963        43.25967         2.83074
O         35.48904        44.52927         1.72221
O         38.85828        26.67178         2.43014
O         36.24705        30.62559         2.11170
O         42.31695        39.75902         2.74008
O         39.66817        37.12870         2.71286
H         40.42898        36.81024         3.25116
O         39.62038        46.62681         2.69533
H         39.15717        45.86221         3.12571
O         37.94409        29.01422         3.06526
H         38.13923        29.99474         3.17250
O         49.23524        44.44557         0.88825
H         48.46900        44.28389         1.49106
O         32.03409        34.64726        -3.38709
H         31.33677        34.01539        -3.65951
O         41.99799        44.58282        -0.61471
H         42.68441        44.91742        -1.23742
O         47.00242        33.08087         1.26245
H         47.71938        33.68190         1.61451
O         39.40215        27.12957        -1.17487
H         39.97913        27.69290        -1.74842
O         43.76902        34.72947        -2.54790
H         44.62577        35.13095        -2.83979
O         38.02158        31.09597        -1.11292
H         37.25854        31.41339        -1.65428
O         41.03442        29.32005        -1.59694
H         41.87095        29.21237        -2.09936
O         41.11486        48.84648         2.70171
H         40.37698        48.27831         3.03124
O         51.81643        39.09484         1.30499
H         51.85328        39.89697         1.86480
O         32.01475        38.64287        -3.23914
H         32.32598        37.88762        -3.78714
O         51.86837        29.76277        -1.98014
H         52.01483        30.38135        -2.72479
O         51.01179        38.53592        -2.15351
H         51.12240        37.78286        -2.76981
O         33.74453        31.38501         1.90580
H         32.90117        31.02438         2.25249
O         49.08778        34.52812        -2.38364
H         48.35608        34.19382        -2.96157
O         36.10403        35.90275        -2.11263
H         35.40671        36.22534        -2.73537
