         420
 CSIRO Nanostructure Databank - Neutral Graphene Oxide Data Set
C         28.61541        27.92848         3.27893
C         28.53239        29.28866         2.87992
C         27.39610        30.08939         3.19906
C         28.48723        32.06110         2.24678
C         27.39250        31.43228         2.92040
C         28.47149        33.47565         1.96011
C         27.46260        34.32098         2.48489
C         28.37152        36.21730         1.27024
C         27.43488        35.66400         2.17248
C         28.28716        37.70345         1.01055
C         26.90175        38.21349         0.68977
C         27.87831        40.20924        -0.38215
C         26.73430        39.42362         0.13372
C         27.86988        41.76991        -0.40549
C         26.76855        42.51550         0.20933
C         28.17647        44.51580         0.29881
C         26.94361        43.81155         0.56947
C         28.28628        45.89305         0.59234
C         30.91270        27.78663         2.46928
C         29.77037        27.20071         3.08372
C         30.80343        29.10630         1.99635
C         29.62999        29.88003         2.19811
C         30.63357        31.87557         1.04207
C         29.58702        31.27615         1.82640
C         30.56132        33.21121         0.66544
C         29.48282        34.04465         1.13133
C         30.32278        35.97018        -0.30275
C         29.40091        35.42234         0.76579
C         30.44451        37.47698        -0.28765
C         29.31592        38.22628         0.03710
C         30.32471        40.27172        -0.89663
C         29.20050        39.57599        -0.39865
C         30.29264        41.70304        -0.96325
C         29.17638        42.43062        -0.53706
C         30.48765        44.55139        -0.58581
C         29.28063        43.83855        -0.28040
C         30.56711        45.93809        -0.28568
C         29.44954        46.58192         0.30829
C         33.42674        24.94858         2.45928
C         32.26912        25.67288         2.67627
C         33.29143        27.63933         1.70521
C         32.16316        27.03587         2.29686
C         33.26334        29.06299         1.33045
C         31.97594        29.80904         1.43942
C         33.00143        31.65481         0.08334
C         31.71618        30.95853         0.48980
C         32.82846        32.97168        -0.56332
C         31.58959        33.78182        -0.25388
C         32.77640        35.92678        -0.82146
C         31.64685        35.25765        -0.41323
C         32.80902        37.37672        -0.95899
C         31.61016        38.12553        -0.78239
C         32.77079        40.23417        -1.27835
C         31.58230        39.55711        -1.01225
C         32.76725        41.64235        -1.69349
C         31.46409        42.43740        -1.48161
C         32.74311        44.60430        -1.59081
C         31.58001        43.89365        -1.25112
C         32.88633        45.98420        -1.19161
C         31.78654        46.65881        -0.57650
C         33.04779        48.74380        -0.57412
C         31.90796        48.02766        -0.24606
C         35.90569        23.44089         1.97276
C         35.74818        24.76818         1.51553
C         34.54679        25.52346         1.80916
C         35.56180        27.49646         0.71740
C         34.46129        26.88605         1.41667
C         35.50116        28.88878         0.32895
C         34.35430        29.62741         0.51303
C         35.40427        31.63621        -0.53502
C         34.21589        30.99953         0.03810
C         35.35530        33.02091        -0.93736
C         34.04847        33.68268        -1.06951
C         35.30973        35.91992        -1.20557
C         34.02107        35.20247        -1.18261
C         35.29521        37.36848        -1.21864
C         34.05010        38.04515        -1.14402
C         35.33568        40.26620        -1.28729
C         34.04346        39.52154        -1.08927
C         35.33838        41.71407        -1.62269
C         34.05401        42.39964        -1.95438
C         35.12238        44.80291        -2.48620
C         33.92719        43.94271        -2.20232
C         35.30418        46.07764        -1.93846
C         34.10635        46.71140        -1.39475
C         35.32631        48.87837        -1.73158
C         34.14585        48.10145        -1.16460
C         35.37187        50.31132        -1.29797
C         38.02051        23.22387         0.78502
C         37.01543        22.69306         1.61877
C         37.92823        24.56408         0.35362
C         36.78428        25.34973         0.72496
C         37.67549        27.30532        -0.55775
C         36.66419        26.72464         0.32148
C         37.78654        28.67189        -0.74203
C         36.79421        29.56935        -0.03320
C         37.79395        31.59780        -1.08458
C         36.58907        30.92642        -0.67200
C         37.80205        33.05303        -1.25356
C         36.52176        33.74627        -1.21779
C         37.73686        35.90646        -1.66628
C         36.48334        35.17957        -1.35332
C         37.83275        37.34389        -1.20723
C         36.52815        38.10101        -1.34908
C         37.83283        40.21621        -1.47888
C         36.57997        39.48928        -1.45259
C         37.80709        41.63910        -1.34944
C         36.54833        42.35171        -1.42949
C         37.86821        44.52722        -1.48121
C         36.65020        43.78009        -1.00839
C         37.87694        46.02007        -1.63294
C         36.58710        46.76521        -1.71399
C         37.80720        48.81163        -1.02672
C         36.60653        48.12194        -1.45742
C         37.76131        50.18919        -0.72868
C         36.49956        50.90016        -0.85971
C         40.52867        20.36960         0.68544
C         39.41280        21.07574         0.98909
C         40.25311        22.96007        -0.52669
C         39.12360        22.34618         0.30467
C         40.14294        24.39252        -0.97916
C         38.89946        25.12321        -0.58074
C         40.46403        27.42355        -1.59470
C         38.61294        26.35575        -1.12730
C         40.30460        28.73621        -1.24731
C         38.93398        29.37380        -1.48366
C         40.22826        31.58544        -1.08328
C         38.95512        30.85542        -1.18671
C         40.25432        32.97569        -1.62059
C         38.98177        33.71317        -1.54591
C         40.32130        35.90458        -1.60837
C         39.03369        35.16340        -1.80949
C         40.32600        37.31426        -1.56315
C         39.03556        38.05827        -1.86955
C         40.29737        40.16873        -1.34802
C         39.06640        39.51055        -1.47403
C         40.29347        41.63381        -1.42514
C         39.03458        42.36970        -1.26405
C         40.31365        44.50559        -1.02040
C         39.10529        43.77580        -1.19206
C         40.27399        45.94919        -0.87935
C         39.09900        46.69399        -1.14217
C         40.20941        48.75425        -0.39783
C         39.03911        48.08490        -0.85981
C         40.16173        50.15770        -0.13264
C         38.94349        50.87959        -0.29887
C         40.07721        52.93645         0.38172
C         38.94141        52.28282        -0.03023
C         42.85410        20.24815        -0.13303
C         41.62993        20.96052        -0.04174
C         42.78056        23.00946        -0.79339
C         41.56700        22.29616        -0.48334
C         42.75905        24.39176        -1.06024
C         41.50257        25.13361        -1.28230
C         42.78985        27.28722        -0.93971
C         41.58565        26.60542        -1.25546
C         42.77039        28.70427        -0.76458
C         41.44716        29.38814        -0.48182
C         42.78023        31.60341        -0.94405
C         41.49247        30.90143        -0.70652
C         42.79378        32.98290        -1.17383
C         41.56258        33.71808        -1.56135
C         42.74770        35.88102        -1.19379
C         41.53167        35.19296        -1.43505
C         42.74943        37.31004        -1.09907
C         41.53137        38.02496        -1.29664
C         42.74252        40.17863        -0.89879
C         41.53326        39.46999        -1.22070
C         42.77524        41.59782        -0.78281
C         41.60418        42.38750        -1.17694
C         42.70390        44.46757        -0.38835
C         41.53065        43.80936        -0.82677
C         42.66491        45.88769        -0.18372
C         41.45807        46.61828        -0.42651
C         42.60426        48.70183         0.24129
C         41.42507        48.02632        -0.20304
C         42.56489        50.11436         0.48596
C         41.34262        50.83302         0.30462
C         42.47854        52.89746         0.99064
C         41.30090        52.23139         0.56115
C         44.01372        20.89505        -0.51605
C         45.29039        22.99522        -0.88579
C         44.03127        22.28546        -0.76676
C         45.29712        24.40527        -0.95480
C         44.04195        25.13232        -1.36767
C         45.23287        27.27753        -0.80326
C         44.03796        26.58518        -0.95333
C         45.23054        28.71822        -0.70179
C         43.97386        29.42501        -0.70943
C         45.21726        31.56769        -0.72344
C         43.99065        30.86727        -0.77193
C         45.23524        32.99577        -0.83660
C         44.01527        33.72630        -1.09973
C         45.21952        35.91161        -1.00427
C         43.98267        35.14253        -1.12265
C         45.18094        37.32599        -0.61082
C         43.95904        38.02615        -0.76966
C         45.14519        40.14001        -0.27233
C         43.94642        39.44729        -0.62795
C         45.13912        41.56258        -0.11339
C         43.92933        42.29201        -0.34448
C         45.09366        44.41099         0.21765
C         43.90820        43.72428        -0.17903
C         45.06378        45.82956         0.41915
C         43.84539        46.56336         0.22885
C         44.99760        48.66478         0.85675
C         43.81215        47.97724         0.44041
C         44.96305        50.06988         1.09012
C         43.73137        50.80316         0.91506
C         43.65591        52.20305         1.16016
C         47.73157        23.00333        -0.85366
C         46.54004        22.31337        -0.82899
C         47.75432        24.42193        -0.82157
C         46.51136        25.12323        -0.82867
C         47.69366        27.26266        -0.56813
C         46.50482        26.56916        -0.75735
C         47.76485        28.75711        -0.78542
C         46.43435        29.43215        -0.60759
C         47.64707        31.53902        -0.21699
C         46.44461        30.84835        -0.54003
C         47.58466        32.94362        -0.09985
C         46.43540        33.66466        -0.54886
C         47.49435        35.81663         0.15934
C         46.51486        35.12283        -0.67053
C         47.54114        37.24673         0.21560
C         46.36907        37.98916        -0.18880
C         47.56169        40.11043         0.27767
C         46.35497        39.41198        -0.04434
C         47.55340        41.53790         0.39671
C         46.33629        42.25834         0.23342
C         47.50436        44.38235         0.75332
C         46.31323        43.68692         0.40213
C         47.47313        45.79592         0.95904
C         46.24993        46.51588         0.80499
C         47.39387        48.62293         1.42668
C         46.21645        47.93679         1.02987
C         47.33183        50.01923         1.65215
C         46.15487        50.72021         1.49217
C         50.25062        24.57572        -1.09812
C         48.98757        25.16252        -0.81455
C         50.13965        27.30889        -0.44122
C         48.94350        26.56305        -0.56212
C         50.10458        28.62230         0.30246
C         48.90916        29.46146        -0.08476
C         50.01120        31.58282         0.68023
C         48.88173        30.83870         0.12279
C         49.82429        32.94488         1.03362
C         48.61919        33.62755         0.60358
C         50.06975        36.02699         1.34026
C         48.33374        34.97993         0.91982
C         50.00062        37.27969         0.78429
C         48.74525        37.96196         0.54926
C         50.03449        40.09086         0.61151
C         48.76917        39.37970         0.47380
C         50.00279        41.54164         0.72671
C         48.77500        42.23988         0.67925
C         49.93118        44.35995         1.20907
C         48.74566        43.66675         0.88204
C         49.90370        45.78156         1.45416
C         48.67120        46.49222         1.32775
C         49.81600        48.54368         1.99254
C         48.63637        47.89495         1.58222
C         51.37179        25.36603        -1.24033
C         52.45719        27.63956        -1.13913
C         51.33866        26.75439        -0.91481
C         52.45148        28.96927        -0.56342
C         51.35405        29.45212         0.17349
C         52.63535        31.57436         0.69133
C         51.33540        30.78140         0.92205
C         52.86640        32.69162         1.41124
C         50.89604        33.76836         1.60891
C         52.53073        35.77309         1.51866
C         51.18330        35.11203         1.39752
C         52.49366        37.26005         1.18513
C         51.31093        37.91610         0.42909
C         52.55452        40.14416         0.47886
C         51.24240        39.41453         0.61079
C         52.47550        41.59703         0.86778
C         51.22698        42.26018         0.92421
C         52.39225        44.35494         1.46825
C         51.18892        43.66214         1.22963
C         52.38178        45.74690         2.04859
C         51.07882        46.47674         1.82929
C         51.00957        47.84292         2.12109
C         54.57504        28.08642        -2.26341
C         53.51653        27.24080        -1.98143
C         54.66956        29.33844        -1.60068
C         53.63867        29.75704        -0.75307
C         54.99307        31.83484        -0.18200
C         53.88996        30.87640         0.20776
C         55.12118        33.05141         0.45709
C         54.09593        33.55206         1.45227
C         54.98492        35.83804         1.08190
C         53.84740        35.08292         1.32286
C         54.97603        37.30638         1.09389
C         53.77462        37.98088         1.02942
C         55.00127        40.19903         1.02744
C         53.69665        39.46853         1.25744
C         54.96504        41.62055         1.00580
C         53.67984        42.29646         1.05590
C         54.85603        44.45993         1.31170
C         53.63801        43.70446         1.30665
C         54.77882        45.90274         1.38943
C         53.60973        46.53143         1.64780
C         55.82867        30.18457        -1.79339
C         55.96567        31.37262        -1.14242
C         56.27376        33.89919         0.29254
C         56.23130        35.19586         0.69288
C         56.19870        38.06877         1.10749
C         56.19640        39.44987         1.04409
C         56.13881        42.41231         1.00974
C         56.08079        43.79866         1.12644
O         38.03412        45.13610        -2.80366
O         31.70187        33.00769        -1.51431
O         41.12287        42.11908        -2.53621
O         33.87326        42.97527        -3.30262
O         36.00821        44.15878        -0.03225
O         38.25486        35.59138        -2.99880
O         39.36839        26.78795        -2.22519
O         31.82411        41.90608        -2.78583
O         48.94080        35.55296         2.04037
O         33.84861        34.32966        -2.35867
O         32.99652        30.02161         2.46101
O         46.25979        35.63663        -2.00250
O         34.78331        40.06480         0.09444
O         39.17778        22.18348        -1.15552
O         27.53559        40.96028        -1.57819
O         40.62272        24.56403        -2.32181
O         52.39033        36.81786         2.58825
O         40.71117        31.59829         0.34256
O         41.00787        33.21080        -2.84781
O         51.88064        33.07748         2.33314
O         54.40107        30.18738         1.40900
H         53.66390        29.64767         1.76970
O         38.64143        29.29095        -2.90917
H         38.72246        28.34040        -3.16158
O         51.60727        37.65780        -0.98030
H         52.23349        38.36595        -1.27536
O         51.31957        30.43501         2.34935
H         51.36438        31.29189         2.83910
O         31.17807        30.36651        -0.72793
H         31.08475        31.10663        -1.37602
O         54.65881        33.38353         2.78657
H         53.94997        33.60379         3.42814
O         41.18718        29.15391         0.93220
H         40.67706        29.93784         1.25127
O         48.07174        28.89629        -2.23072
H         47.32125        28.50528        -2.72807
O         28.64986        38.31880         2.29826
H         28.59725        39.29198         2.19202
O         52.93637        40.08012        -0.94451
H         52.33392        40.67635        -1.43860
O         53.39505        39.61776         2.68377
H         53.11047        38.74519         3.03803
O         38.09512        37.25571         0.22412
H         37.92234        38.13524         0.62192
O         49.91841        28.22500         1.70820
H         50.27576        28.95835         2.26786
O         52.48566        45.57017         3.50973
H         53.28652        45.02973         3.68026
O         35.89942        44.32909        -3.46896
H         35.45112        43.51735        -3.82779
O         29.62855        35.66769        -1.56740
H         30.29295        35.67308        -2.28926
O         35.12351        48.90672        -3.18305
H         35.22450        47.98691        -3.50968
O         44.09768        25.17951        -2.85061
H         43.94045        24.26887        -3.18068
O         38.85284        38.10530        -3.30457
H         38.76590        37.17283        -3.62656
O         37.42838        29.86749         1.27051
H         36.76577        30.33792         1.82098
H         27.75476        27.46826         3.78547
H         26.53787        29.62445         3.70516
H         26.51379        32.02693         3.20240
H         26.70330        33.92058         3.16881
H         26.66687        36.31116         2.61802
H         26.02662        37.62525         1.00310
H         25.72510        39.81167        -0.06785
H         25.80212        42.01434         0.35705
H         26.11917        44.37300         1.03296
H         27.43173        46.41631         1.04444
H         29.80595        26.16199         3.43791
H         29.49102        47.65205         0.54631
H         33.45217        23.89745         2.77596
H         31.41935        25.16631         3.15242
H         33.08504        49.82025        -0.35916
H         31.08150        48.55746         0.24304
H         35.13892        22.97741         2.60660
H         34.46372        50.91663        -1.43206
H         37.08002        21.65439         1.96737
H         36.46263        51.96595        -0.59715
H         40.69159        19.37936         1.13605
H         38.68672        20.66135         1.70110
H         40.05184        54.01813         0.57800
H         38.02140        52.86696        -0.15871
H         42.87986        19.18586         0.14747
H         42.44115        53.97859         1.18752
H         44.94639        20.31775        -0.54934
H         44.54574        52.75218         1.49424
H         48.67502        22.44088        -0.84441
H         46.57107        21.21673        -0.79690
H         48.22901        50.57181         1.95852
H         46.16144        51.80169         1.67835
H         50.32623        23.49722        -1.29333
H         49.81307        49.61530         2.22811
H         52.31800        24.90096        -1.54874
H         51.90268        48.37794         2.47052
H         55.37609        27.77039        -2.94619
H         53.48685        26.24900        -2.45226
H         55.69415        46.48257         1.19563
H         53.58369        47.62966         1.69027
H         56.59661        29.85620        -2.50879
H         56.83663        32.00412        -1.36586
H         57.19848        33.49644        -0.14256
H         57.13232        35.80893         0.57180
H         57.16694        37.55771         1.17286
H         57.16503        39.96835         1.00182
H         57.12323        41.93167         0.92907
H         57.01015        44.38605         1.10282
