         274
 CSIRO Nanostructure Databank - Neutral Graphene Oxide Data Set
C        -11.14584         0.59545        -0.52839
C        -10.04576         1.45547         0.03682
C         -8.73088         0.68205         0.24640
C         -7.47229         1.48677         0.30498
C         -6.14633         0.79689         0.28902
C         -5.03431         1.50730         0.61573
C         -3.90079         0.87754         1.36870
C         -2.54060         1.57473         1.39427
C         -1.22411         0.84460         1.44438
C          0.07531         1.61509         1.42393
C          1.37637         0.88050         1.50002
C          2.66055         1.70919         1.19264
C          3.93486         0.85067         0.96690
C          5.08396         1.46037         0.23510
C          6.23128         0.62836        -0.21311
C          7.36486         1.33664        -0.92659
C          8.65207         0.58004        -0.79085
C          9.92665         1.32734        -0.46423
C         11.15175         0.54824        -0.88303
C         -9.83743         2.76104        -0.69912
C         -8.66127         3.48972        -0.61324
C         -7.50800         2.92869        -0.00150
C         -6.18339         3.54898        -0.22897
C         -5.01988         3.03258         0.59172
C         -3.64142         3.46261         0.02384
C         -2.52874         3.05141         1.02566
C         -1.21194         3.76211         0.96681
C          0.07268         3.03495         0.99770
C          1.20191         3.59860         0.46021
C          2.33607         2.68400         0.01174
C          3.57657         3.44711        -0.53959
C          4.91014         2.76483        -0.49060
C          6.18211         3.51585        -0.78274
C          7.45202         2.80201        -0.64169
C          8.67927         3.51649        -0.75014
C          9.87924         2.78039        -0.85082
C         -8.61152         4.86693        -1.28310
C         -7.37546         5.67043        -0.92252
C         -6.10861         4.90033        -0.87431
C         -4.79124         5.64695        -1.09686
C         -3.55049         4.92369        -0.48903
C         -2.33032         5.74768        -0.21626
C         -1.15508         5.13250         0.44062
C          0.03985         5.78721         0.43420
C          1.27691         5.03991         0.28881
C          2.40134         5.69852        -0.14596
C          3.51423         4.96934        -0.87729
C          4.86783         5.74409        -0.74553
C          6.17743         5.00995        -0.85679
C          7.46658         5.72061        -0.61415
C          8.65990         4.95904        -0.73403
C         -7.38221         6.98634        -0.61700
C         -6.13512         7.68189        -0.09730
C         -4.85646         7.14887        -0.73562
C         -3.60914         7.95398        -0.51790
C         -2.24715         7.25796        -0.50006
C         -1.29239         7.92503         0.48332
C          0.06376         7.26455         0.67336
C          1.18659         8.00126         0.00295
C          2.40967         7.18969        -0.25264
C          3.68178         7.89483         0.16004
C          4.92940         7.16869        -0.29481
C          6.22434         7.74591         0.25451
C          7.46168         7.07697        -0.29464
C         -6.16375         9.19338        -0.17241
C         -5.04215         9.94667        -0.10874
C         -3.70147         9.36746        -0.03177
C         -2.58633        10.09338         0.27587
C         -1.32769         9.39889         0.66812
C          0.00915        10.14201         0.92383
C          1.27660         9.44734         0.37618
C          2.46463        10.08539         0.25437
C          3.69605         9.37187        -0.31454
C          5.04129         9.97743         0.05085
C          6.17121         9.26277         0.19281
C        -11.09254        -0.75224        -0.55844
C         -9.87726        -1.51136        -0.31089
C         -8.57870        -0.74057        -0.29868
C         -7.37426        -1.50822         0.26800
C         -6.10259        -0.70866         0.30982
C         -4.83629        -1.35939        -0.21795
C         -3.48586        -0.70903        -0.05261
C         -2.47040        -1.22525         0.76575
C         -1.11998        -0.52162         0.75382
C          0.04241        -1.38678         1.21811
C          1.34219        -0.64216         1.43621
C          2.58683        -1.35059         0.99185
C          3.94767        -0.67203         1.17601
C          4.95584        -1.45775         0.21193
C          6.24587        -0.71174        -0.09331
C          7.33134        -1.54980        -0.73798
C          8.62290        -0.76427        -0.91341
C          9.82656        -1.51168        -1.43184
C         11.11339        -0.75350        -1.20520
C         -9.86459        -2.87270        -0.37723
C         -8.64546        -3.65523        -0.37819
C         -7.31302        -3.04724         0.07029
C         -6.23353        -3.46746        -0.98133
C         -4.84794        -2.75997        -0.77346
C         -3.52428        -3.61148        -0.83992
C         -2.11112        -2.92043        -0.53661
C         -1.09405        -3.52850         0.42962
C          0.01059        -2.85087         0.89416
C          1.27714        -3.58122         1.24902
C          2.55661        -2.84341         0.90790
C          3.86750        -3.59052         1.08857
C          5.16088        -2.83809         0.84353
C          6.46968        -3.55860         0.69714
C          7.70556        -2.77256         0.17347
C          8.73651        -3.60882        -0.55747
C          9.81592        -2.98557        -1.11114
C         -8.67362        -4.96031        -0.76088
C         -7.42700        -5.75394        -0.88455
C         -6.14319        -4.99655        -1.03324
C         -4.94992        -5.68269        -0.43517
C         -3.69857        -4.94367        -0.11702
C         -2.50245        -5.72208         0.40009
C         -1.23772        -4.99256         0.75260
C          0.00128        -5.80207         1.08395
C          1.31626        -5.07131         1.17225
C          2.56091        -5.74478         0.60266
C          3.86767        -5.08714         1.07976
C          5.16625        -5.84415         0.89188
C          6.55331        -5.10008         0.82991
C          7.47515        -5.72286        -0.20571
C          8.55358        -5.03134        -0.69537
C         -7.37929        -7.13913        -0.36289
C         -6.21398        -7.82725        -0.22598
C         -4.90133        -7.18256        -0.64936
C         -3.67891        -7.85193        -0.06099
C         -2.52901        -7.21666         0.28675
C         -1.36982        -8.07108         0.85741
C         -0.03169        -7.29946         1.03621
C          1.29237        -8.01447         0.84221
C          2.55306        -7.26296         0.65906
C          3.70673        -7.92500         0.28680
C          5.04480        -7.26285         0.40925
C          6.19529        -7.85336        -0.32070
C          7.31647        -7.10487        -0.57842
C         -6.19657        -9.21776         0.20266
C         -5.06081        -9.95033         0.21143
C         -3.76046        -9.33867        -0.14205
C         -2.50068       -10.11370        -0.15724
C         -1.22527        -9.38429         0.10432
C         -0.04975        -9.99868        -0.12715
C          1.25972        -9.43682         0.26579
C          2.47233        -9.94512        -0.36274
C          3.67363        -9.28756        -0.21763
C          4.88804        -9.87753        -0.75442
C          6.06712        -9.20275        -0.81297
O         -6.04445         3.68063        -1.68312
O          5.28476        -6.95210         1.83393
O         -4.30425         7.93114        -1.82525
O          6.17174         4.22390        -2.08853
O          1.59132         7.69824        -1.36897
O         -4.75542        -7.35504        -2.08436
O          6.06375        -2.94435         1.97517
O         -4.75149        -5.09200         0.88454
O         -2.48244         4.99071        -1.49311
O         -1.61779        -2.35612        -1.54198
O         -0.11139        -6.59385         2.31199
O          1.40994        -9.17736         1.70459
O          3.85576        -4.35507         2.32752
O          0.76351         1.38899         2.71681
O         -6.75591        -1.17903         1.54039
O         -1.78182         8.43320         1.74668
O          5.03728         1.49770         1.69938
O          0.60637        -1.20505         2.55211
O          1.37704        -4.38199         2.45156
O         -4.88769        -1.61148        -1.66680
O         -6.73894        -5.58071        -2.21211
O         -1.92081         1.14609         2.65841
O          4.07915         2.68066        -1.68706
O         -8.17943         0.98401         1.54689
O         -2.16143         3.86080         2.16175
O         -4.23308         0.19662         2.36847
O          4.92590         6.86842        -1.70296
O          4.44223        -1.62673        -1.07645
O          2.39435        -2.03052        -0.28490
O         -2.25033        -5.24231         1.77348
O          2.46163        -5.43085        -0.82949
H          3.15373        -5.92655        -1.31668
O          3.62812         9.44481        -1.75047
H          2.88850         8.85891        -2.04469
O        -10.53628         1.87867         1.34609
H         -9.76352         1.81934         1.96172
O         -7.00106        -3.66724         1.31938
H         -6.70748        -2.96793         1.95066
O         -3.40175        -3.99016        -2.22395
H         -2.90677        -3.26388        -2.67367
O          0.42620         7.34759         2.08008
H         -0.39585         7.55871         2.58529
O         -8.22594        -0.54421        -1.70294
H         -7.86402        -1.39437        -2.06233
O          6.83984        -1.99428        -2.01766
H          5.83200        -1.96868        -1.95829
O         -3.16401        -9.84062        -1.42634
H         -4.50356        -8.28930        -2.25435
O         -4.63972         5.57558        -2.52548
H         -4.22621         6.42060        -2.82334
O         -6.00752         7.30748         1.31111
H         -6.74865         7.71389         1.80702
O          3.61565         7.88908         1.60432
H          4.53178         7.84309         1.97088
O          4.32965        -0.90653         2.52736
H          4.91339        -0.16727         2.81230
O         -5.19855         3.56540         1.91069
H         -4.57483         3.13134         2.53209
O          9.62223        -1.50809        -2.89007
H          8.69847        -1.81637        -3.04128
O          7.20527        -5.34167         2.08769
H          6.63237        -4.96129         2.78884
O         -1.61344         7.42923        -1.77920
H         -1.89415         6.68036        -2.35343
O          8.38562        -2.20080         1.31380
H          7.75443        -2.23118         2.07193
O         -2.81575        -1.86904         1.92264
H         -3.44060        -1.28322         2.44780
O         -0.72104        -0.10341        -0.56891
H         -0.81969        -0.86752        -1.19482
O         -0.08208        11.46079         0.38500
H          0.03940        11.41392        -0.58541
O         -9.80476         5.59423        -1.00253
H         -9.93703         5.61879        -0.03306
O          3.14236         5.04299        -2.26512
H          3.87572         4.63985        -2.78165
O          6.98587         1.26595        -2.34410
H          6.77327         0.32634        -2.54458
O         -3.10027         0.00944        -1.13796
H         -3.79859        -0.02740        -1.82812
O         -3.43789         2.61684        -1.12131
H         -2.92164         3.12759        -1.78745
O         -6.76542        -3.01656        -2.24022
H         -6.81737        -3.81017        -2.82921
O         -1.80507        -8.46846         2.17482
H         -1.55202        -7.73573         2.78697
O          6.25162         7.40013         1.69399
H          7.02787         7.84572         2.09573
O          9.95097         1.34935         1.01485
H          9.90157         0.41623         1.31842
O          1.78052         1.88763        -1.04782
H          2.44511         1.83856        -1.77588
O          2.92963         2.55309         2.31645
H          2.21205         2.40104         2.98130
H         12.05118        -1.28301        -1.43678
H         12.12442         1.05665        -0.78436
H         10.82092         3.30961        -1.06495
H          9.62404         5.48667        -0.67915
H          8.42681         7.58592        -0.13767
H          7.11991         9.79206         0.38508
H          5.10606        11.07774         0.07574
H          2.53827        11.15747         0.49960
H          0.12777        10.25415         2.03361
H         -2.66905        11.16967         0.49252
H         -5.12560        11.04422        -0.07667
H         -7.14811         9.68618        -0.20066
H         -8.33662         7.53714        -0.61840
H         -8.58915         4.69546        -2.39339
H        -10.71545         3.23240        -1.16724
H        -12.08864         1.10719        -0.77319
H        -11.98591        -1.32510        -0.85276
H        -10.81246        -3.41447        -0.52506
H         -9.63063        -5.43566        -1.03003
H         -8.33252        -7.61372        -0.08136
H         -7.15614        -9.68069         0.47881
H         -5.08232       -11.01679         0.47892
H         -2.51748       -11.19061         0.11998
H         -0.04476       -10.98504        -0.61825
H          2.42042       -10.88259        -0.93603
H          4.82100       -10.90172        -1.14877
H          6.95176        -9.67444        -1.26538
H          8.12618        -7.55866        -1.17191
H          9.27217        -5.56678        -1.33723
H         10.58095        -3.59559        -1.61909
