         252
 CSIRO Nanostructure Databank - Neutral Graphene Oxide Data Set
C         30.35566        31.65224         0.69371
C         30.47220        32.86377         0.93431
C         30.34689        36.19445         0.73894
C         30.50365        37.41061         0.93729
C         30.79664        40.56179         1.47495
C         30.85709        41.76298         1.89908
C         32.63727        28.82288        -0.17079
C         31.62576        29.39599         0.24368
C         32.77653        31.50869         0.29898
C         31.53292        30.72272         0.91854
C         32.92825        32.96944         0.76451
C         31.57477        33.80508         0.94371
C         32.63387        36.06711         0.02043
C         31.53123        35.28104         0.78430
C         32.81730        37.50213         0.48149
C         31.67006        38.24821         0.82420
C         33.04409        40.34197         0.84067
C         31.74283        39.64537         1.04924
C         33.21529        41.81582         1.35376
C         32.03247        42.48988         2.01340
C         33.59313        44.20519         2.61311
C         32.44254        43.71710         2.59056
C         35.32950        27.26503        -0.34751
C         35.18789        28.67321        -0.33697
C         33.91555        29.41274        -0.68001
C         35.20714        31.54613         0.07963
C         33.89566        30.84785        -0.10103
C         35.24339        32.96886        -0.44412
C         33.94035        33.73695        -0.13216
C         35.23717        35.97618        -0.21974
C         33.93172        35.25107        -0.18974
C         35.28854        37.35790         0.00364
C         34.10251        38.13936         0.39121
C         35.59776        40.07796         0.92091
C         34.23205        39.50019         0.64810
C         35.69253        41.58511         1.07963
C         34.60427        42.32940         1.55880
C         36.07387        44.24594         2.11519
C         34.81627        43.66135         2.10412
C         36.46207        45.55467         2.44379
C         37.70936        27.07396        -0.22477
C         36.41483        26.60457        -0.35544
C         37.69793        28.54511         0.00064
C         36.42203        29.29886        -0.10837
C         37.76504        31.47316        -0.24293
C         36.49588        30.76653         0.07342
C         37.78187        32.96609        -0.17754
C         36.49728        33.74437        -0.09287
C         37.67549        35.85860        -0.58725
C         36.48113        35.21945        -0.36322
C         37.66118        37.32162        -0.77963
C         36.51506        38.08355        -0.24466
C         37.85989        40.17722        -0.23661
C         36.66236        39.43833         0.05999
C         37.97855        41.54647         0.18989
C         36.97911        42.19043         0.93364
C         38.51133        44.27960         1.16035
C         37.32711        43.44098         1.73291
C         38.59979        45.76782         1.40801
C         37.50874        46.20662         2.21184
C         40.26570        24.35385        -0.06900
C         39.21393        24.97424        -0.24112
C         40.29644        27.12380        -0.73999
C         38.95055        26.37061        -0.57140
C         40.30457        28.59626        -0.48552
C         39.01460        29.31595        -0.20511
C         40.17823        31.50804        -0.76358
C         38.91700        30.77738        -0.48741
C         40.17970        32.99413        -0.75485
C         39.01891        33.67176        -0.58970
C         40.23256        35.83950        -0.80195
C         38.92470        35.11356        -1.03691
C         40.24936        37.33643        -0.58814
C         38.96125        38.04332        -0.95474
C         40.21782        40.16847        -1.05807
C         39.00455        39.51055        -0.76411
C         40.18191        41.63350        -1.14961
C         39.06873        42.34435        -0.42122
C         40.36295        44.60231        -0.69678
C         39.39153        43.71958         0.08435
C         40.61922        45.98074        -0.13079
C         39.66621        46.49229         0.93641
C         41.09133        48.44100         1.05260
C         40.03227        47.82167         1.27113
C         42.85317        24.48657         0.33515
C         41.61743        24.80987        -0.36850
C         42.95202        27.12729        -0.60173
C         41.60775        26.36399        -0.70581
C         42.80709        28.66334        -0.57322
C         41.47290        29.29838        -0.42642
C         42.61432        31.58824         0.01574
C         41.47263        30.78838        -0.56383
C         42.55785        33.12507         0.00390
C         41.51439        33.67874        -1.02864
C         42.68806        35.90847        -0.77003
C         41.42790        35.18211        -0.85758
C         42.71715        37.28159        -0.93627
C         41.42988        37.97061        -1.32694
C         42.68164        40.15159        -1.29479
C         41.45817        39.47852        -1.20191
C         42.71491        41.59082        -1.80233
C         41.41867        42.39019        -1.58336
C         42.74239        44.72195        -1.87481
C         41.45956        43.89942        -1.49251
C         42.99001        45.98565        -1.02477
C         41.96573        46.64344        -0.29667
C         43.49234        48.48449         0.10749
C         42.20770        47.94526         0.29724
C         43.79325        25.22808         0.63298
C         45.19011        27.37905         0.53454
C         43.84559        26.72244         0.67548
C         45.26976        28.75710         0.21154
C         44.01842        29.46400        -0.18202
C         45.18620        31.66301         0.58606
C         43.89647        30.88312         0.30412
C         45.10017        33.10295         0.09298
C         43.94174        33.74457        -0.19342
C         45.13054        35.98774        -0.23802
C         43.99613        35.14884        -0.78399
C         45.13263        37.34366        -0.41349
C         43.93302        38.04166        -0.85231
C         45.10426        40.20746        -0.65773
C         43.91360        39.44671        -1.02734
C         45.07823        41.69417        -0.74308
C         43.87818        42.41037        -1.24753
C         45.34799        44.44362        -1.96872
C         44.00694        43.79079        -1.84372
C         45.28462        46.02667        -2.20959
C         44.26030        46.60206        -1.24886
C         44.31801        47.82241        -0.59576
C         47.54428        27.47785         0.70204
C         46.46222        26.83125         0.76972
C         47.72054        28.85407         0.47819
C         46.47557        29.49696         0.23326
C         47.67437        31.73871         0.49370
C         46.44594        30.99344        -0.04153
C         47.58662        33.09683         0.63107
C         46.42943        33.85363        -0.02330
C         47.46931        36.10095         0.72972
C         46.21045        35.27635         0.54192
C         47.44107        37.46065         0.62862
C         46.42247        38.12336        -0.27941
C         47.27259        40.44005         0.51528
C         46.20036        39.60696        -0.08855
C         47.42755        41.82627         0.11498
C         46.41644        42.36786        -0.79174
C         47.73099        44.54246        -0.82700
C         46.57250        43.74367        -1.36850
C         47.61264        45.88780        -1.32346
C         46.67522        46.45659        -1.88329
C         50.25351        29.08312         0.55720
C         48.94837        29.59769         0.55210
C         50.13472        31.74003         0.95126
C         48.93636        31.02169         0.72068
C         50.03024        33.14409         1.54518
C         48.69185        33.87017         1.26849
C         49.92960        36.12882         1.36835
C         48.64884        35.38342         1.29522
C         49.83758        37.59593         1.55733
C         48.52592        38.28005         1.23003
C         49.74705        40.59454         1.25722
C         48.48877        39.78822         1.14297
C         49.71603        41.96877         1.21139
C         48.41646        42.70236         0.83578
C         49.84701        44.58253         0.52360
C         48.61442        44.03577         0.07165
C         51.34157        29.71058         0.67850
C         52.56360        31.97290         1.02418
C         51.43301        31.10017         0.88714
C         52.35689        33.22131         1.08069
C         51.25392        34.05202         1.21983
C         52.28401        36.37424         1.33247
C         51.16596        35.45155         1.30044
C         52.19617        37.60231         1.49022
C         51.06384        38.46857         1.53351
C         52.09697        40.75508         1.51222
C         51.00585        39.83345         1.44228
C         52.17768        41.99003         1.49833
C         50.95163        42.84780         1.74259
C         50.90366        44.17442         1.02345
O         35.84642        31.24822         1.32739
O         41.00426        31.06587        -1.93046
O         32.98245        41.50114        -0.05859
O         31.76495        34.72667         2.06501
O         38.53697        28.98025         1.13981
O         48.27001        34.57576         2.50127
O         47.41816        40.28625         2.00806
O         39.79315        43.62970         1.50410
O         42.56329        45.18650        -3.17247
O         41.72579        25.28303        -1.70286
O         44.10501        42.33121         0.18654
O         41.03932        43.22481        -2.70997
O         37.21965        33.43608         1.11988
O         43.64116        29.32101        -1.58395
O         39.01516        42.16747        -1.85847
O         33.56545        34.38862        -1.35951
O         46.97418        42.59437        -2.16454
O         44.76147        43.74421        -3.08789
O         42.90605        31.06592         1.36798
O         39.45047        26.74694        -1.88121
O         33.45943        32.77871         2.02512
O         38.20983        37.66236        -2.13875
O         48.85853        37.90992         2.60766
O         39.82743        45.76338        -1.36417
O         35.90155        39.60812         2.29490
H         36.72557        40.05102         2.59325
O         50.11405        32.91554         2.96455
H         49.59186        33.62476         3.41053
O         33.89950        29.51162        -2.10443
H         33.02128        29.84172        -2.38742
O         31.81594        30.61699         2.27173
H         32.36129        31.41256         2.54135
O         45.40166        31.65864         2.00759
H         44.52488        31.75393         2.44211
O         47.07312        38.04229        -1.60053
H         46.38304        38.12553        -2.29340
O         43.74915        26.79899        -1.72930
H         43.34195        26.02519        -2.18535
O         45.65961        35.12303         1.88074
H         46.40405        34.85327         2.47443
O         44.28176        34.97289        -2.20922
H         43.52579        34.45505        -2.58842
O         38.78234        35.02396        -2.49067
H         38.71081        35.95235        -2.82759
O         37.79955        42.90250         2.99831
H         38.78252        42.84550         2.94417
O         47.75166        43.07927         2.07909
H         47.57943        42.24400         2.57660
O         41.21297        37.70645        -2.73785
H         41.89929        38.17857        -3.25481
O         35.33801        32.77293        -1.87790
H         34.77464        33.46103        -2.31062
O         32.03237        36.22018        -1.29649
H         32.68431        36.63817        -1.89615
O         50.75457        43.02975         3.10924
H         51.41059        43.66787         3.45602
O         42.06179        33.55999         1.28631
H         42.44892        32.97150         1.97292
O         46.79884        33.99501        -1.40816
H         46.65816        33.12095        -1.84368
O         44.91375        46.30493        -3.52585
H         43.99579        45.91781        -3.67267
O         41.98851        33.44041        -2.36606
H         41.69420        32.53453        -2.64158
O         43.18230        27.20984         1.83428
H         43.73720        27.04144         2.62431
O         46.34138        31.20110        -1.47396
H         46.87925        30.52574        -1.93829
O         42.92022        41.45915        -3.22123
H         42.52991        42.25924        -3.65059
O         40.38820        37.58021         0.83517
H         41.13572        37.04190         1.17287
