         272
 CSIRO Nanostructure Databank - Neutral Graphene Oxide Data Set
C        -11.31657         0.86628        -0.40575
C        -10.12019         1.67297        -0.82011
C         -9.06423         0.84482        -1.59646
C         -7.78021         1.54214        -1.95418
C         -6.44762         0.79313        -2.02187
C         -5.13438         1.54180        -1.97890
C         -3.79734         0.77112        -2.09209
C         -2.62616         1.42911        -1.35526
C         -1.28776         0.76915        -1.61337
C         -0.04395         1.42749        -1.07622
C          1.15153         0.57563        -0.75655
C          2.40041         1.36322        -0.48714
C          3.73050         0.68614        -0.58197
C          4.84447         1.22359         0.32716
C          6.21886         0.68789        -0.01364
C          7.33571         1.43013         0.21805
C          8.65260         0.78829         0.42427
C          9.89831         1.64205         0.03784
C         11.09443         0.87903        -0.37968
C         -9.11287         1.93846         0.35890
C         -8.25284         3.09385        -0.11833
C         -7.75307         3.05296        -1.58273
C         -6.34267         3.72577        -1.73392
C         -5.18972         2.87926        -1.22879
C         -3.89486         3.66866        -1.09811
C         -2.66880         2.85274        -0.89970
C         -1.39067         3.59472        -0.65711
C         -0.11016         2.81986        -0.53498
C          0.92694         3.31520         0.43329
C          2.25235         2.59799         0.38265
C          3.50174         3.36215         0.67343
C          4.78669         2.74498         0.21008
C          5.99806         3.58917         0.07355
C          7.29488         2.92570         0.58993
C          8.50824         3.71487        -0.06017
C          9.62969         2.99117        -0.45672
C         -8.10604         4.21637         0.61869
C         -7.31628         5.35953         0.11434
C         -6.38709         5.10556        -1.04513
C         -5.08959         5.89661        -1.16433
C         -3.89471         4.99905        -0.83845
C         -2.78846         5.71235        -0.08168
C         -1.46123         4.98076        -0.12084
C         -0.36516         5.54797         0.74149
C          0.87161         4.70945         0.99515
C          2.14520         5.42476         1.43381
C          3.49905         4.79346         1.15751
C          4.73384         5.64392         1.01596
C          5.82988         5.11864         0.06305
C          7.16938         5.82014         0.17542
C          8.38601         5.10778        -0.09626
C         -7.07474         6.54928         0.92311
C         -6.02752         7.45088         0.64918
C         -5.05849         7.14778        -0.32395
C         -3.83001         7.93596        -0.40879
C         -2.52137         7.16597        -0.61136
C         -1.47246         7.85252         0.30540
C         -0.41469         7.01564         0.99776
C          0.87434         7.74720         1.30943
C          2.10758         6.90977         1.59488
C          3.30951         7.87397         1.43120
C          4.68107         7.16502         1.17251
C          5.92402         7.91251         0.76886
C          7.14931         7.17827         0.34669
C         -5.82772         8.61899         1.51025
C         -4.69864         9.36854         1.50057
C         -3.60637         9.08586         0.54990
C         -2.14705         9.11488         0.94146
C         -1.01929         9.22354        -0.01542
C          0.25974         9.66087        -0.05491
C          1.31216         8.55285         0.04620
C          2.77177         8.95884         0.39192
C          3.68042         9.25127        -0.79484
C          4.97627         9.90757        -0.41912
C          5.91386         9.34644         0.35684
C        -11.23028        -0.43471        -0.09113
C         -9.93420        -1.09147        -0.09290
C         -8.75898        -0.29351        -0.63412
C         -7.65983        -1.23324        -1.13421
C         -6.40589        -0.68280        -1.74856
C         -5.22615        -1.40763        -1.82869
C         -3.87717        -0.70321        -1.59216
C         -2.59640        -1.45341        -2.01464
C         -1.27342        -0.69723        -1.92195
C          0.02609        -1.48719        -1.85640
C          1.25362        -0.81569        -1.28618
C          2.59964        -1.46558        -1.53064
C          3.86634        -0.70013        -1.17744
C          5.18558        -1.42272        -1.09336
C          6.25494        -0.79927        -0.18666
C          7.55162        -1.50828         0.10713
C          8.77250        -0.69687         0.45056
C         10.15761        -1.36865         0.25058
C         11.22643        -0.45754        -0.23447
C         -9.81210        -2.30453         0.49776
C         -8.48904        -3.00823         0.65388
C         -7.60195        -2.61914        -0.53259
C         -6.36340        -3.42226        -0.73893
C         -5.18970        -2.87515        -1.55629
C         -3.86250        -3.64376        -1.45989
C         -2.58004        -2.93187        -1.80087
C         -1.29588        -3.57302        -1.32096
C          0.01863        -2.98363        -1.77501
C          1.31577        -3.80795        -1.61852
C          2.61900        -2.96616        -1.59888
C          3.91113        -3.79194        -1.44074
C          5.21338        -2.92908        -1.29967
C          6.47742        -3.60625        -0.86572
C          7.70457        -2.74135        -0.73959
C          9.15393        -3.68635         0.29827
C         10.19836        -2.78224        -0.15710
C         -8.71580        -4.52666         0.76582
C         -7.89943        -5.45130         1.24932
C         -5.87955        -4.34597         0.34107
C         -5.10669        -5.53331        -0.16226
C         -3.81626        -4.97786        -0.76643
C         -2.58161        -5.53335        -0.08036
C         -1.28792        -4.83015        -0.49177
C          0.01972        -5.53979        -0.17726
C          1.31699        -4.90199        -0.55591
C          2.58336        -5.76015        -0.50634
C          3.81702        -4.83148        -0.29109
C          5.09191        -5.64806        -0.11047
C          6.34602        -4.80772         0.10530
C          7.66967        -5.68136         0.03109
C          8.81926        -4.91081        -0.39445
C         -7.26312        -6.46585         1.81598
C         -6.44437        -7.52047         1.05057
C         -5.18924        -6.94502         0.32650
C         -3.87166        -7.71389         0.37785
C         -2.59469        -7.06262        -0.06709
C         -1.28608        -7.76785         0.19250
C          0.01832        -7.02770         0.06242
C          1.25368        -7.65994         0.55968
C          2.48834        -6.86055         0.54314
C          3.78293        -7.56124         0.80964
C          5.05894        -6.88291         0.43972
C          6.29473        -7.42384         1.14259
C          7.57463        -6.95661         0.46606
C         -6.13536        -8.73609         1.90070
C         -4.94542        -9.34423         1.99165
C         -3.67521        -8.66150         1.56063
C         -2.44511        -9.53692         1.44976
C         -1.29652        -9.06391         0.91780
C         -0.00544        -9.86033         0.88038
C          1.26848        -9.01625         0.96783
C          2.47302        -9.65300         1.26152
C          3.79119        -9.07077         0.82251
C          5.06096        -9.60904         1.44424
C          6.20378        -8.90492         1.44435
O          3.62676        -4.08144         0.91232
H          4.50317        -4.06095         1.40505
O          3.26632         1.60028        -1.62643
O          2.86752         2.49924         1.68038
O         -8.34791         0.64423         0.49811
O         -0.87672         6.09168         2.02250
O          0.10086        -2.30648        -3.05699
O         -8.28623        -2.38418        -1.78363
O         -8.71282         1.02015        -2.96906
O         -3.35984        -7.92681        -0.95976
O        -10.65526         2.83175        -1.40619
H         -9.98379         3.30267        -1.98146
O          7.36304         3.06514         1.93590
O         -8.53252         3.83083        -2.44033
O          2.07142         6.05413         2.75181
O         -2.85757         1.73133         0.05622
O          3.41142         8.58659         2.67337
H          4.23502         8.28527         3.12883
O          9.58831        -1.14035         1.57959
O          3.11908        -6.81840         1.86748
O         -1.29808        -3.50584         0.15011
O          6.21242        -4.28893         1.36591
O          0.41877         2.56387        -1.87233
O          4.47990         4.93149         2.24028
O         -5.81571         1.34538        -3.24158
O         -6.18073        -3.76463        -2.12594
O         -0.52573        -7.81365        -1.07029
O          6.46897        -1.54328         1.05955
O         -2.63859        -2.36211        -3.13785
O         -7.83302        -2.50943         1.83234
H         -8.33025        -2.81020         2.61966
O          5.32680         5.52740        -1.23787
O          0.97932        -0.55101         0.14400
O          5.64381         7.61239         2.18980
O          8.74512        -3.62711         1.58189
H          9.01140        -2.76300         1.98497
O         -7.60436         5.79641        -1.30773
O         -1.11226         0.31029        -2.97198
O          2.69688        -2.14253        -2.80869
O          9.46662         1.43057         1.41497
O         -3.34098         5.80758         1.24767
H         -2.58780         5.92141         1.88829
O          0.04850       -10.55178        -0.37861
H         -0.07883        -9.87547        -1.08341
O         -3.86072        -4.92375        -2.19790
O          4.02918        -4.51243        -2.67490
H          4.01207        -3.85410        -3.40337
O         -5.63017        -6.55825        -1.02606
O          5.35504         3.05386        -1.11759
O          0.64234         8.63984         2.40992
H          1.47680         8.70270         2.93164
O          6.14082        -3.54891        -2.28348
O         -2.74825        -5.24107         1.33144
H         -2.39073        -4.34033         1.50877
O         -3.77312        -0.72485        -0.14371
H         -4.46911        -0.15763         0.25212
O         -1.13074         4.74381        -1.52210
O          0.78171        -4.71788         0.76786
O          4.84956        -0.65402        -2.26930
O          3.86935        -9.44036        -0.60055
H          3.80990       -10.41670        -0.66753
O          6.30918        -6.78511         2.44709
H          6.30160        -5.79509         2.28792
O          3.34001         9.08517        -1.95183
H          5.18445         4.70745        -1.77422
O         -3.85500         9.32084        -0.86006
O          0.47769         3.53902         1.79096
O          4.58094         0.72062         1.63988
H          5.22062         1.11246         2.27250
O         -3.44520         0.75562        -3.47181
H         -4.28049         0.73628        -3.99695
O         -3.36967        -7.72216         2.65068
H         -3.37611        -8.21961         3.49526
O          8.25272        -2.41335        -1.94206
H          7.76411        -2.91667        -2.64494
O         -5.51303         2.52075         0.14584
H         -4.68567         2.18861         0.57182
O          1.36411        -4.55764        -2.85895
H          1.27104        -3.89858        -3.58632
O         -5.70604        -3.93463         1.48124
O         -6.15899         4.00261        -3.11947
H         -7.10555         4.13034        -3.43377
O          1.28826         7.62161        -1.03335
H          1.69120         8.05798        -1.82195
O         -7.31698        -8.06215         0.03882
H         -7.17274        -7.54227        -0.78717
O         -2.09459         7.15549        -1.96103
H         -2.86565         6.91275        -2.52359
O          2.71483        -6.53462        -1.70159
H          2.78650        -5.92386        -2.47580
O         -4.87349         6.30937        -2.54111
H         -5.24445         5.58079        -3.11015
H         12.14986        -0.93693        -0.59249
H         11.91702         1.44974        -0.83773
H         10.29167         3.39901        -1.23852
H          9.31053         5.70765        -0.13493
H          8.08523         7.75689         0.30154
H          6.83158         9.91394         0.58474
H          5.12297        10.93556        -0.78705
H          2.72758         9.91069         0.96901
H          0.52966        10.71454         0.12146
H         -1.91372         9.39781         1.98453
H         -4.55828        10.16143         2.25087
H         -6.61506         8.83608         2.24724
H         -7.73724         6.74697         1.78015
H         -8.50862         4.28325         1.64170
H         -9.57114         2.15694         1.35251
H        -12.28075         1.39283        -0.39247
H        -12.11372        -1.01607         0.20980
H        -10.70904        -2.77373         0.93225
H         -9.71185        -4.87349         0.42882
H         -7.39593        -6.62100         2.90213
H         -7.02291        -9.23764         2.31707
H         -4.85519       -10.28937         2.55129
H         -2.45163       -10.51263         1.96223
H         -0.00585       -10.63536         1.68756
H          2.44895       -10.71144         1.56969
H          5.06723       -10.66614         1.75752
H          7.11942        -9.37611         1.83651
H          8.48361        -7.56731         0.58620
H          9.23594        -5.06373        -1.40555
H         10.58902        -2.96646        -1.17087
