         600
 CSIRO Nanostructure Databank - Neutral Graphene Oxide Data Set
C         22.96606        27.47377        -0.04024
C         22.98225        28.83595         0.22766
C         23.00463        31.74658         0.53382
C         23.00874        33.11311         0.70674
C         23.02341        36.00050         1.17478
C         23.01790        37.38073         1.21317
C         23.01059        40.29031         1.07790
C         23.00961        41.65617         0.95750
C         22.99157        44.54650         0.58187
C         22.98446        45.90425         0.40119
C         25.35133        24.65968        -0.60698
C         24.17053        25.35859        -0.49951
C         25.41681        27.43692        -0.06793
C         24.17148        26.75356        -0.20431
C         25.42620        28.84082         0.20750
C         24.19226        29.55190         0.33766
C         25.43385        31.69964         0.61424
C         24.21546        31.00236         0.51078
C         25.45251        33.11637         0.73759
C         24.22398        33.83337         0.82094
C         25.47163        35.94190         1.08596
C         24.24484        35.25888         1.03908
C         25.49691        37.39007         1.50809
C         24.21605        38.12995         1.22289
C         25.46818        40.26252         1.04655
C         24.22805        39.54696         1.12721
C         25.46210        41.68037         0.91104
C         24.22445        42.39334         0.86079
C         25.44994        44.52733         0.63923
C         24.21687        43.81783         0.69945
C         25.44738        45.95053         0.48828
C         24.20681        46.64012         0.35017
C         25.38757        48.74812         0.14736
C         24.19774        48.03979         0.16290
C         27.91679        23.19157        -0.70303
C         27.83470        24.54856        -0.37984
C         26.60998        25.29468        -0.40624
C         27.87895        27.41336        -0.08268
C         26.64008        26.70878        -0.16399
C         27.86182        28.83078         0.05257
C         26.67082        29.52771         0.27827
C         27.94412        31.72671         0.35290
C         26.72812        30.94690         0.78866
C         27.93250        33.14059         0.47017
C         26.69778        33.83695         0.73829
C         27.94042        35.97592         0.81099
C         26.70181        35.24557         0.88508
C         27.94328        37.40980         0.90203
C         26.73721        38.12981         1.08942
C         27.94516        40.26078         0.87454
C         26.71582        39.54024         1.01306
C         27.93938        41.68671         0.81070
C         26.70049        42.40000         0.80832
C         27.92644        44.54156         0.61157
C         26.69271        43.81847         0.69828
C         27.92799        45.96677         0.54996
C         26.67197        46.68671         0.47856
C         27.86447        48.89651         0.44159
C         26.62450        48.09554         0.32428
C         27.96288        50.25126        -0.09351
C         30.36576        23.08339        -0.46074
C         29.13737        22.49673        -0.77290
C         30.35806        24.42077         0.15429
C         29.05079        25.21955         0.12402
C         30.34451        27.36503         0.06944
C         29.12830        26.69699         0.03229
C         30.40133        28.79985        -0.25092
C         29.10805        29.57712        -0.18273
C         30.36299        31.71503        -0.09245
C         29.15985        31.04143         0.04793
C         30.35842        33.21077        -0.24997
C         29.13039        33.88095         0.30650
C         30.40276        35.99379         0.48101
C         29.15050        35.27940         0.52474
C         30.40830        37.40045         0.63258
C         29.17766        38.12190         0.77579
C         30.42141        40.25967         0.82194
C         29.17955        39.54531         0.82470
C         30.41497        41.69888         0.76652
C         29.17212        42.40247         0.71673
C         30.39346        44.53548         0.43949
C         29.16540        43.82735         0.60192
C         30.39150        45.95842         0.35642
C         29.16654        46.65669         0.48138
C         30.43635        48.82419         0.19626
C         29.20080        48.12133         0.56025
C         30.41407        50.22732         0.05183
C         29.16673        50.89976        -0.14696
C         32.87979        20.43190        -1.32154
C         31.68060        21.08777        -1.12684
C         32.87119        23.14261        -0.53608
C         31.63213        22.43885        -0.70632
C         32.89755        24.51484        -0.14046
C         31.65323        25.15709         0.29190
C         32.88952        27.41089         0.07415
C         31.62880        26.69468         0.33055
C         32.87121        28.84790        -0.03122
C         31.66589        29.53938        -0.13185
C         32.89251        31.73112        -0.06774
C         31.63830        31.00417        -0.49748
C         32.87431        33.14192         0.11960
C         31.65269        33.88048         0.14598
C         32.88925        35.98709         0.48672
C         31.64590        35.27185         0.36758
C         32.89433        37.40259         0.61428
C         31.65063        38.11948         0.66717
C         32.91063        40.23280         0.98851
C         31.63521        39.52638         0.81280
C         32.91216        41.75692         0.89286
C         31.62814        42.43299         0.66612
C         32.87754        44.52890         0.23270
C         31.63303        43.82222         0.43176
C         32.86688        45.92859         0.04712
C         31.63334        46.67322         0.15572
C         32.85592        48.80314        -0.46566
C         31.63133        48.07476         0.03177
C         32.89253        50.25453        -0.05116
C         31.67375        50.96003         0.05289
C         32.91934        53.02702         0.37195
C         31.71199        52.35106         0.29133
C         35.41940        19.01559        -1.60960
C         35.37194        20.38468        -1.25295
C         34.11902        21.08748        -1.12272
C         35.34542        23.16637        -0.57554
C         34.11021        22.46538        -0.75719
C         35.34507        24.56518        -0.29765
C         34.10339        25.25088        -0.11064
C         35.34546        27.41221         0.00264
C         34.09712        26.69587         0.02302
C         35.34044        28.84813         0.05171
C         34.12291        29.56815        -0.01189
C         35.34527        31.70388         0.20265
C         34.10466        31.00499         0.03219
C         35.34696        33.12459         0.30619
C         34.11639        33.84578         0.30626
C         35.36450        35.97183         0.52115
C         34.12029        35.26455         0.44150
C         35.37718        37.39345         0.60014
C         34.14426        38.11190         0.64317
C         35.37682        40.25924         0.62353
C         34.16927        39.52697         0.73320
C         35.36984        41.69360         0.45781
C         34.15858        42.42480         0.49573
C         35.34716        44.50250        -0.08053
C         34.12356        43.81105         0.20524
C         35.32468        45.89748        -0.27811
C         34.10730        46.62058        -0.18795
C         35.37251        48.72885        -0.17192
C         34.13570        48.04400        -0.24549
C         35.36612        50.15821         0.19515
C         34.11216        50.93124         0.11269
C         35.42668        53.05742         0.23843
C         34.14985        52.33909         0.28500
C         35.45948        54.47548         0.24587
C         37.85119        18.97956        -1.41841
C         36.61948        18.33940        -1.69883
C         37.83688        20.35553        -1.04992
C         36.59707        21.06472        -0.98935
C         37.80749        23.14529        -0.43116
C         36.58129        22.46220        -0.67967
C         37.81026        24.56153        -0.19531
C         36.58203        25.27278        -0.17274
C         37.81651        27.40747         0.09016
C         36.57513        26.70301        -0.02093
C         37.81544        28.83430         0.20576
C         36.58271        29.55587         0.15692
C         37.81203        31.68468         0.37195
C         36.57488        30.97878         0.24265
C         37.81971        33.10886         0.44867
C         36.58864        33.82890         0.41745
C         37.83426        35.95953         0.55443
C         36.59348        35.24977         0.49601
C         37.83007        37.37583         0.66034
C         36.61922        38.10698         0.66064
C         37.82754        40.27638         0.45984
C         36.62077        39.54986         0.60692
C         37.82768        41.66169         0.15431
C         36.59142        42.38357         0.14936
C         37.82916        44.46600        -0.37236
C         36.58862        43.77625        -0.11866
C         37.84371        45.88590        -0.55022
C         36.55104        46.62115        -0.76987
C         37.84722        48.76202        -0.37582
C         36.59781        48.05964        -0.32545
C         37.89294        50.17309        -0.23060
C         36.68250        50.90262         0.17777
C         37.86782        53.06432        -0.15300
C         36.64658        52.37032         0.06886
C         37.86757        54.48820        -0.14576
C         36.64143        55.16463         0.07425
C         40.35415        16.23569        -2.03968
C         39.15642        16.90516        -1.91640
C         40.32205        18.95067        -1.23475
C         39.10677        18.27018        -1.51998
C         40.31210        20.31855        -0.79487
C         39.05884        21.03086        -0.71318
C         40.22932        23.08750         0.08931
C         39.01892        22.40474        -0.38573
C         40.27440        24.55763         0.09435
C         39.05100        25.26506        -0.00910
C         40.28753        27.37808         0.30308
C         39.04853        26.68966         0.11623
C         40.28103        28.79987         0.43443
C         39.04727        29.53089         0.37010
C         40.25345        31.67758         0.63428
C         39.03818        30.96222         0.44974
C         40.28876        33.08485         0.61753
C         39.05968        33.81765         0.53075
C         40.32118        35.94470         0.47541
C         39.06853        35.23789         0.54446
C         40.35411        37.35433         0.47773
C         39.11337        38.07604         0.78627
C         40.33875        40.25230         0.16337
C         39.11510        39.60309         0.65391
C         40.27326        41.59153        -0.22471
C         39.05711        42.33585        -0.15186
C         40.29116        44.44037        -0.69736
C         39.04798        43.74387        -0.40529
C         40.29179        45.89204        -0.82499
C         39.04645        46.59916        -0.66981
C         40.27802        48.75514        -0.80289
C         39.05975        48.04565        -0.65184
C         40.29798        50.18471        -0.71939
C         39.08889        50.89646        -0.44414
C         40.30402        53.04212        -0.56344
C         39.09339        52.33632        -0.37637
C         40.30901        54.47949        -0.53013
C         39.10365        55.20524        -0.33850
C         40.32184        57.31344        -0.48701
C         39.13991        56.62946        -0.33234
C         42.82598        16.22545        -1.92472
C         41.58212        16.89904        -1.78265
C         42.80331        18.94011        -1.13635
C         41.56781        18.26557        -1.37915
C         42.78754        20.31517        -0.73284
C         41.54002        20.96427        -0.52508
C         42.79612        23.10329         0.00580
C         41.55029        22.32508         0.02814
C         42.76406        24.50296         0.22523
C         41.51423        25.22751         0.25511
C         42.75779        27.35369         0.55398
C         41.52361        26.65776         0.37138
C         42.73815        28.78203         0.71355
C         41.50822        29.47480         0.67651
C         42.80686        31.68129         0.94043
C         41.47468        30.91958         0.93035
C         42.78335        33.10401         0.59150
C         41.55063        33.79519         0.57347
C         42.77095        35.90827         0.20677
C         41.54641        35.21163         0.41142
C         42.77066        37.33796         0.07998
C         41.56590        38.07226         0.25628
C         42.78736        40.19973        -0.14334
C         41.56343        39.50868         0.09541
C         42.79265        41.61186        -0.44720
C         41.47494        42.22379        -0.86875
C         42.71164        44.36418        -1.24060
C         41.47306        43.72215        -0.78179
C         42.67335        45.84036        -1.50715
C         41.46422        46.59912        -1.13099
C         42.69709        48.76545        -1.28114
C         41.50153        48.04330        -1.08363
C         42.73432        50.19162        -1.14897
C         41.52051        50.90405        -0.87791
C         42.75888        53.04071        -0.94299
C         41.53222        52.32919        -0.79559
C         42.76791        54.47615        -0.86209
C         41.54027        55.18662        -0.68670
C         42.77295        57.31055        -0.79341
C         41.54567        56.61021        -0.65536
C         44.01187        16.87750        -1.67631
C         45.27149        18.93385        -1.00204
C         44.03517        18.24459        -1.27668
C         45.25542        20.31257        -0.63241
C         44.01632        21.00942        -0.50256
C         45.25337        23.10605         0.00343
C         44.01636        22.40873        -0.17698
C         45.24346        24.50555         0.27987
C         44.00345        25.21403         0.33743
C         45.24318        27.30150         0.72342
C         43.99903        26.62801         0.53981
C         45.22090        28.74180         1.01395
C         43.97962        29.51112         0.83552
C         45.28022        31.62619         0.59216
C         44.04230        30.90333         0.78457
C         45.26406        33.02998         0.28040
C         44.00361        33.76802         0.28219
C         45.18689        35.85764        -0.38133
C         43.97536        35.16263         0.07595
C         45.20660        37.33016        -0.32325
C         44.00742        38.03968        -0.14037
C         45.25151        40.16803        -0.27449
C         44.01344        39.47566        -0.16213
C         45.28959        41.68188        -0.20006
C         43.98025        42.33083        -0.58084
C         45.22529        44.43469        -1.11110
C         44.01731        43.70434        -0.99013
C         45.25160        45.85007        -1.39604
C         43.97856        46.55165        -1.67737
C         45.24735        48.73597        -1.52027
C         43.95099        48.05346        -1.63231
C         45.19030        50.20419        -1.67860
C         43.94814        50.92039        -1.31511
C         45.22868        53.06624        -1.22304
C         43.97583        52.33057        -1.18853
C         45.23310        54.47972        -1.05239
C         43.98534        55.20040        -0.95081
C         43.95725        56.62243        -0.92473
C         47.70331        18.92120        -0.81243
C         46.52012        18.26908        -1.08980
C         47.72216        20.29049        -0.44769
C         46.48933        20.99701        -0.37701
C         47.71811        23.07162         0.19333
C         46.48535        22.39335        -0.06518
C         47.71530        24.48616         0.42431
C         46.48901        25.19831         0.45122
C         47.73722        27.33768         0.66985
C         46.47663        26.62028         0.65249
C         47.77027        28.74529         0.69589
C         46.54179        29.50555         0.95919
C         47.73982        31.61166         0.41634
C         46.50902        30.93708         0.62776
C         47.73094        33.00939         0.15683
C         46.48509        33.68644         0.01759
C         47.79482        35.84853        -0.63009
C         46.47832        35.08316        -0.47434
C         47.66889        37.30900        -0.25200
C         46.46159        38.01617        -0.33927
C         47.70826        40.19416        -0.35300
C         46.44655        39.46139        -0.32395
C         47.71645        41.58209        -0.54279
C         46.45648        42.24233        -1.02132
C         47.69506        44.44022        -1.07354
C         46.49927        43.75719        -0.99696
C         47.73132        45.88228        -1.24172
C         46.45453        46.57442        -1.42216
C         47.71406        48.75560        -1.74600
C         46.43013        48.02355        -1.57523
C         47.75275        50.21209        -1.54289
C         46.49915        50.96535        -1.68198
C         47.70293        53.07256        -1.21547
C         46.47259        52.39443        -1.34655
C         47.67372        54.47522        -1.01323
C         46.47499        55.15526        -0.96163
C         50.20989        20.28921        -0.18970
C         48.95804        20.97147        -0.13299
C         50.19020        23.00034         0.72537
C         48.93779        22.34417         0.19412
C         50.20071        24.49554         0.55637
C         48.97596        25.19225         0.53327
C         50.21054        27.32828         0.57403
C         48.97311        26.62065         0.57358
C         50.22336        28.75696         0.56653
C         48.99112        29.46389         0.57459
C         50.21055        31.60264         0.45544
C         48.98413        30.89525         0.49092
C         50.20364        33.03151         0.33963
C         48.98166        33.72545         0.11856
C         50.19336        35.83762         0.13042
C         48.99853        35.13988        -0.03862
C         50.18538        37.31304         0.20035
C         48.89877        38.05324         0.03065
C         50.17719        40.20888        -0.37172
C         48.91133        39.49656        -0.18914
C         50.20847        41.66780        -0.19166
C         48.89328        42.41436        -0.16719
C         50.20672        44.45631        -0.71397
C         49.00185        43.65227        -1.07899
C         50.28309        45.82418        -1.29388
C         48.94989        46.55432        -1.24155
C         50.23553        48.75461        -1.19935
C         49.01945        47.99646        -1.54806
C         50.20676        50.16010        -1.19816
C         48.95521        50.88882        -1.34543
C         50.17958        53.00136        -1.15993
C         48.95580        52.33363        -1.25083
C         51.41488        20.96458        -0.03750
C         52.70034        23.05223         0.35230
C         51.46694        22.32932         0.28555
C         52.69300        24.47467         0.52545
C         51.44101        25.19029         0.56946
C         52.68569        27.33250         0.62957
C         51.44486        26.61408         0.56826
C         52.69468        28.76953         0.65064
C         51.46142        29.47575         0.58400
C         52.68664        31.62382         0.59543
C         51.45427        30.90194         0.54902
C         52.67655        33.05428         0.56882
C         51.43804        33.74574         0.42033
C         52.64540        35.90224         0.52949
C         51.42733        35.16704         0.37011
C         52.62969        37.34672         0.41353
C         51.47722        38.01826         0.10559
C         52.69186        40.24895        -0.00918
C         51.48188        39.45670        -0.24017
C         52.66794        41.63226        -0.02874
C         51.39359        42.34502        -0.09787
C         52.67684        44.52969        -0.20022
C         51.34899        43.85376         0.06293
C         52.68933        45.92683        -0.46633
C         51.47904        46.62931        -0.82377
C         52.66325        48.79600        -0.73677
C         51.45250        48.03626        -0.91050
C         52.65173        50.19610        -0.73259
C         51.41731        50.90443        -0.97917
C         51.38248        52.30505        -1.03374
C         55.13824        23.09545         0.19290
C         53.94993        22.39302         0.20796
C         55.16876        24.49991         0.35803
C         53.92571        25.19365         0.57195
C         55.13716        27.35523         0.95731
C         53.89801        26.61551         0.70721
C         55.16499        28.81022         0.82946
C         53.92862        29.49726         0.70499
C         55.16106        31.65119         0.73577
C         53.92302        30.92704         0.68164
C         55.14495        33.08450         0.71108
C         53.89927        33.78514         0.65441
C         55.12376        35.95439         0.71722
C         53.87498        35.21658         0.65811
C         55.13864        37.36119         0.69153
C         53.85600        38.14720         0.77604
C         55.16489        40.24180         0.41057
C         53.96507        39.44727        -0.02292
C         55.11687        41.67486         0.32868
C         53.91010        42.37882         0.10697
C         55.12217        44.55232         0.04800
C         53.88877        43.82717         0.00526
C         55.14223        45.97011        -0.06467
C         53.92898        46.63426        -0.37601
C         55.19801        48.89091        -0.19735
C         53.93594        48.07554        -0.63338
C         54.97907        50.31336         0.06100
C         53.82191        50.92372        -0.30162
C         57.52337        24.70576        -0.46236
C         56.40529        25.22465         0.19916
C         57.64846        27.42782         0.38807
C         56.48524        26.59821         0.69452
C         57.63590        28.80180         0.68026
C         56.40426        29.51100         0.83380
C         57.63744        31.68447         0.74284
C         56.39709        30.95154         0.78765
C         57.61887        33.11656         0.72533
C         56.37466        33.81355         0.72523
C         57.58900        35.97699         0.78197
C         56.36121        35.24401         0.73571
C         57.57236        37.40147         0.85394
C         56.35491        38.08911         0.74904
C         57.56363        40.27749         0.91407
C         56.33369        39.55364         0.70755
C         57.51445        41.71757         0.88582
C         56.35135        42.38433         0.52839
C         57.65283        44.63392         0.68774
C         56.37030        43.82060         0.22194
C         57.45230        46.06258         0.90750
C         56.32268        46.72903         0.36202
C         57.26506        48.83670         1.21129
C         56.27593        48.14628         0.47089
C         58.67739        25.47936        -0.67914
C         59.88804        27.65676        -0.63635
C         58.75744        26.81852        -0.28101
C         59.97047        28.93448        -0.20860
C         58.96910        29.50327         0.77682
C         60.07665        31.74438         0.73009
C         58.88113        31.00811         0.72082
C         60.07098        33.13083         0.71242
C         58.85108        33.85204         0.69502
C         60.03208        36.06561         0.48598
C         58.83336        35.28243         0.69334
C         60.04593        37.41370         0.62972
C         58.85280        38.12359         1.21336
C         60.00954        40.40466         0.95095
C         58.79956        39.62051         1.00047
C         59.98987        41.75889         1.07740
C         58.70165        42.41759         1.50449
C         59.52886        44.64884         2.26499
C         58.67311        43.92297         1.44146
C         59.45730        46.04317         2.34143
C         58.41498        46.75846         1.69468
C         58.29568        48.16669         1.83730
O         28.53009        48.69406         1.72844
O         43.92978        47.32122        -2.92256
O         36.10229        50.40789         1.44520
O         45.92828        29.13644         2.24143
O         42.10311        31.34903         2.18418
O         57.44046        44.19241        -0.68907
O         50.89475        39.71669        -1.57780
O         39.23762        38.94954         1.96313
O         54.96357        48.50130        -1.58098
O         45.78475        50.65676        -2.94449
O         55.95246        26.80439         2.03311
O         45.65424        35.26759        -1.68072
O         40.80722        22.46615         1.29080
O         29.67461        29.18551        -1.50387
O         31.72831        25.88190         1.55016
O         49.45292        37.74449         1.44053
O         29.53492        24.57391         1.34838
O         48.50697        48.30264        -2.90435
O         32.97147        41.07687         2.19380
O         42.50830        44.88413        -2.62016
O         59.50464        29.19263         2.11363
H         59.44565        28.22051         2.23182
O         36.39817        46.67453        -2.25165
H         35.60731        47.22555        -2.43720
O         50.13809        22.78510         2.19791
H         50.12864        21.81451         2.34260
O         58.59243        42.12095         2.95025
H         58.63853        41.14414         3.04908
O         49.18242        43.13844        -2.43964
H         49.60627        43.86722        -2.95750
O         30.27193        33.41705        -1.72139
H         30.87098        32.73664        -2.12719
O         54.17745        39.04597        -1.40918
H         54.05001        39.83136        -1.98154
O         32.69940        48.84212        -1.94586
H         32.51327        47.92495        -2.24104
O         46.25724        41.85334        -2.40494
H         47.06267        42.12384        -2.89976
O         58.98415        37.97874         2.68608
H         59.01970        37.01645         2.87631
O         48.62497        42.89182         1.19838
H         47.68751        42.67863         1.42046
O         41.34212        41.93538        -2.31015
H         41.89320        42.58729        -2.79773
O         31.63641        31.04409        -1.98795
H         30.91523        30.41699        -2.25572
O         50.49485        45.62564        -2.76827
H         50.26203        46.47294        -3.21113
O         45.59538        42.05271         1.18516
H         44.90280        41.66579         1.76201
O         25.57743        37.34403         2.99753
H         24.77627        36.87007         3.30894
O         26.89448        30.80057         2.25856
H         26.08830        30.35644         2.59881
O         48.10353        35.88458        -2.06283
H         47.23211        35.87205        -2.52875
O         53.68316        38.53856         2.16963
H         53.57813        37.72490         2.70569
O         51.07906        44.13600         1.48791
H         50.20305        43.72611         1.69957
H         22.00670        26.94486        -0.13223
H         22.02089        29.35406         0.33992
H         22.03929        31.23477         0.43157
H         22.04599        33.63877         0.74212
H         22.06018        35.47551         1.16865
H         22.04592        37.89208         1.19284
H         22.04670        39.77069         1.15110
H         22.04423        42.17744         0.93805
H         22.03135        44.01653         0.62056
H         22.03330        46.44610         0.29840
H         25.31364        23.58166        -0.81375
H         23.20859        24.84118        -0.62535
H         25.35903        49.84022         0.03351
H         23.23848        48.56470         0.05153
H         27.01184        22.65163        -1.01357
H         27.06081        50.75293        -0.47077
H         29.10576        21.47086        -1.16375
H         29.18661        51.94633        -0.48347
H         32.85303        19.37657        -1.62152
H         30.74911        20.52656        -1.27504
H         32.89886        54.11330         0.52881
H         30.77563        52.91288         0.41109
H         34.49416        18.46673        -1.82699
H         34.53623        55.05058         0.39188
H         36.59883        17.28031        -1.98570
H         36.61263        56.26144         0.09962
H         40.36892        15.18026        -2.34734
H         38.22804        16.36098        -2.13265
H         40.33358        58.41270        -0.47480
H         38.21317        57.20209        -0.19880
H         42.82953        15.17090        -2.23601
H         42.76730        58.40985        -0.78434
H         44.95168        16.32258        -1.79410
H         44.88926        57.19306        -1.02656
H         48.63984        18.35365        -0.88432
H         46.56290        17.20927        -1.37191
H         48.60558        55.04417        -0.90338
H         46.50050        56.24217        -0.81238
H         50.24462        19.22212        -0.44158
H         50.21732        54.09801        -1.15975
H         52.34210        20.40520        -0.22361
H         52.30755        52.88924        -0.95343
H         56.08064        22.54463         0.06860
H         53.98655        21.30118         0.10078
H         55.76336        50.90629         0.55057
H         53.73659        52.00433        -0.12847
H         57.50064        23.67953        -0.85443
H         57.21570        49.92968         1.30077
H         59.52234        25.03422        -1.22392
H         60.66436        27.23299        -1.29139
H         60.83567        29.55062        -0.49458
H         61.03790        31.21398         0.77099
H         61.02852        33.66771         0.73437
H         60.94633        35.55569         0.14955
H         60.97631        37.96634         0.43829
H         60.96961        39.89523         0.78424
H         60.91929        42.34508         1.04411
H         60.28704        44.11042         2.85047
H         60.18112        46.59720         2.95521
H         59.03943        48.71614         2.43082
