         272
 CSIRO Nanostructure Databank - Neutral Graphene Oxide Data Set
C        -11.07295         0.78815         0.69894
C        -10.04434         1.57276        -0.02650
C         -8.91117         0.78175        -0.60462
C         -7.63037         1.50401        -0.90571
C         -6.34741         0.73656        -0.94990
C         -5.02975         1.47868        -0.98444
C         -3.76125         0.79863        -0.67749
C         -2.60143         1.52819        -0.48496
C         -1.29984         0.80834        -0.46446
C         -0.10397         1.52923         0.09181
C          1.14966         0.76078         0.32658
C          2.45933         1.46240         0.56405
C          3.75131         0.71094         0.39816
C          5.08658         1.38658         0.51807
C          6.20233         0.41463         0.97592
C          7.46440         1.16667         1.38218
C          8.74468         0.39166         1.27259
C         10.04857         1.14193         1.11068
C         11.19856         0.32142         0.61374
C         -9.86707         3.03103         0.20574
C         -8.79148         3.74053        -0.25262
C         -7.58713         3.03947        -0.83896
C         -6.30564         3.50735        -0.12832
C         -5.05596         2.97201        -0.80857
C         -3.76217         3.65901        -0.62506
C         -2.57696         2.98107        -0.51597
C         -1.33582         3.75574        -0.15829
C         -0.06347         3.02903         0.13784
C          1.24347         3.73302         0.14238
C          2.41323         2.97872         0.76653
C          3.76640         3.62531         0.52253
C          5.06123         2.85729         0.75077
C          6.17401         3.51461         1.54323
C          7.50126         2.69710         1.45010
C          8.75744         3.30832         0.93274
C          9.91199         2.58568         0.81596
C         -8.72259         5.19977        -0.25201
C         -7.56175         5.94677        -0.18388
C         -6.27171         5.30375         0.36969
C         -5.00016         5.88752        -0.29474
C         -3.79829         5.11492        -0.78981
C         -2.50765         5.85902        -0.99724
C         -1.19322         5.20488        -0.54023
C          0.00581         5.90828        -0.01582
C          1.20174         5.13334         0.23162
C          2.50891         5.92814         0.30700
C          3.78951         5.11080         0.54693
C          4.95851         5.79674         1.25380
C          6.28836         5.00454         1.18596
C          7.51930         5.56243         0.50397
C          8.71187         4.65036         0.19691
C         -7.55987         7.36358        -0.51085
C         -6.57425         8.27270        -0.16962
C         -4.71744         7.28891         0.02777
C         -3.70731         8.02021        -0.59300
C         -2.66715         7.29771        -1.22596
C         -1.16043         8.26460         0.52280
C          0.03963         7.33393         0.30312
C          1.17221         7.88973         0.84905
C          2.46666         7.20634         1.14405
C          3.72306         8.03845         0.76380
C          5.03888         7.27145         0.83951
C          6.26656         7.74154         0.03791
C          7.31177         6.77900        -0.28481
C         -6.27632         9.57205        -0.74451
C         -5.02335        10.14041        -0.79411
C         -3.73826         9.49079        -0.57774
C         -2.54477        10.18649        -0.50361
C         -1.24103         9.61534        -0.18878
C         -0.09700        10.31562        -0.51133
C          1.20640         9.89512        -0.01783
C          2.41525         9.89985        -0.64971
C          3.67000         9.30543        -0.09508
C          4.89416         9.60937        -0.88529
C          6.04572         8.90968        -0.84246
C        -11.09529        -0.56306         0.73901
C        -10.10483        -1.43453         0.05505
C         -8.92237        -0.73706        -0.56215
C         -7.62135        -1.52685        -0.78748
C         -6.37816        -0.68606        -0.48896
C         -5.08997        -1.39886        -0.28567
C         -3.79296        -0.64734        -0.31555
C         -2.52940        -1.44801        -0.27740
C         -1.26658        -0.68544        -0.55350
C          0.00624        -1.45040        -0.35383
C          1.21717        -0.76870         0.28754
C          2.44812        -1.34073        -0.50063
C          3.79116        -0.62913        -0.27876
C          5.11191        -1.32385        -0.49172
C          6.44218        -0.55216        -0.24589
C          7.67791        -1.47791        -0.20473
C          8.79740        -0.97484         0.64502
C          9.97230        -1.83604         1.07628
C         11.19560        -1.02920         0.62152
C         -9.99163        -2.88400         0.40962
C         -8.84131        -3.58684         0.26646
C         -7.57192        -2.86634        -0.00052
C         -6.27015        -3.63304        -0.04099
C         -5.08218        -2.88532        -0.65344
C         -3.76799        -3.60004        -0.44680
C         -2.58043        -2.93932        -0.41812
C         -1.29234        -3.72171        -0.69241
C         -0.00876        -2.95112        -0.36818
C          1.27158        -3.64793         0.09552
C          2.53265        -2.85029        -0.15434
C          3.84454        -3.58437        -0.32957
C          5.08486        -2.82651        -0.74571
C          6.34412        -3.61990        -0.98491
C          7.72874        -2.93473        -0.83534
C          8.77864        -3.78470        -0.10079
C          9.83583        -3.25067         0.55265
C         -8.70717        -5.03200         0.74704
C         -7.49182        -5.80734         0.22477
C         -6.30462        -5.10540        -0.15409
C         -5.14062        -5.81624        -0.66573
C         -3.79379        -5.07268        -0.84830
C         -2.63713        -5.82550        -0.19133
C         -1.32308        -5.08583        -0.05035
C         -0.04634        -5.83107         0.18419
C          1.33480        -5.17673         0.25579
C          2.45553        -5.77752        -0.58246
C          3.79923        -5.07862        -0.42882
C          5.04570        -5.85793        -0.73162
C          6.31895        -5.15860        -1.21954
C          7.52368        -5.95483        -0.74797
C          8.85510        -5.25360        -0.51503
C         -7.53162        -7.18539         0.26681
C         -6.45085        -8.11368        -0.25071
C         -5.14019        -7.38930        -0.58388
C         -3.86816        -8.08756        -0.38762
C         -2.61889        -7.30778        -0.18452
C         -1.29194        -8.01098        -0.37115
C         -0.02695        -7.35209         0.22226
C          1.02995        -7.99447        -0.73388
C          2.35222        -7.22813        -0.94306
C          3.62535        -8.01719        -1.11722
C          4.95445        -7.32696        -0.93379
C          6.22993        -8.07376        -1.33368
C          7.44754        -7.30523        -0.80479
C         -6.23407        -9.34711         0.59333
C         -5.04689        -9.98295         0.66473
C         -3.80671        -9.38565         0.17752
C         -2.56744       -10.05599         0.33499
C         -1.31211        -9.47076         0.01722
C         -0.07882       -10.12289         0.03154
C          1.15881        -9.45824        -0.32440
C          2.36356       -10.11653        -0.35397
C          3.62415        -9.49005        -0.81568
C          4.95183       -10.09224        -0.50383
C          6.12147        -9.47789        -0.76220
O         -0.96839         3.51194         1.22999
O          7.50764         1.86456         2.65290
O        -10.00372        -1.23650        -1.40662
O         -3.54277        -5.04347        -2.27638
H         -3.92225        -5.87373        -2.65639
O          2.20413         3.04720         2.26245
O         -1.07688        -7.91954        -1.82291
O          2.01791        -3.08141         1.18560
O         -1.55393         5.32475        -1.98960
O         -7.45133         3.46796        -2.28901
H         -6.70089         2.83413        -2.63125
O          5.18393        -6.78393         0.40630
O         -5.10222         2.39874        -2.16448
O         -0.80853        -5.21204         1.28696
O          4.05065        -4.41505         0.85712
O          8.80630        -0.76186        -0.80203
O          0.38126        -7.98148        -2.04953
O          5.72863         3.46537         2.90582
H          6.42192         3.86328         3.47283
O          0.27712        -2.19015        -1.57337
O         -5.86775        -0.88171         0.84639
O          5.49007         2.29674        -0.52614
O          4.64117         5.80670         2.65808
H          5.37082         6.28569         3.10741
O         -9.96100         1.29256        -1.50412
O          6.30993        -5.32078        -2.66943
H          6.87832        -4.60739        -3.04324
O         -6.74507        -3.03658         1.20307
O          2.03512         4.42031         2.63727
H          1.10521         4.44401         2.97297
O          1.11689         9.24063         1.24026
O          0.19224        -7.78226         1.56107
H          0.48893        -7.00303         2.08652
O          8.24236        -2.87510        -2.13056
O         -1.81751         7.84363        -2.08726
H         -1.27242         7.09284        -2.44965
O          9.65254        -5.99909         0.40225
H          9.18759        -6.03191         1.26317
O         -6.24977         5.29991         1.67526
O         -1.99497         7.93823         1.34779
O         -5.23763        -2.89148        -2.09849
H         -4.69447        -3.63068        -2.47741
O         -4.83690         5.58996        -1.72364
O          4.01665         4.39399        -0.70776
O         -6.99472        -8.62903        -1.50839
H         -6.79818        -7.94667        -2.19114
O          5.74519        -0.38873         2.06653
H          5.75293         0.15891         2.88167
O          6.08510         8.00171         1.49260
O         -3.10272        -0.93284         0.96432
O          2.17556        -6.15860        -1.94573
O         10.01431        -1.98180         2.51093
H         10.06030        -1.07208         2.89591
O         -5.34601        -6.67753        -1.85653
O          4.46779        -0.58872        -1.57047
O          1.15666        -1.09059         1.67954
H          1.77141        -0.49510         2.16814
O          5.55767        -3.05264        -2.09408
O         -7.10901         0.98048        -2.17792
O          3.10335         0.75761         1.70161
O          9.59774         0.63739         2.42173
O         -9.91100        -5.75187         0.49591
H        -10.00216        -5.88410        -0.46969
O          0.22267         1.07715         1.43322
O          2.46420         6.97465         2.55629
H          2.52555         7.84883         2.99618
O          6.35850        -8.15511        -2.76194
H          6.38279        -7.22762        -3.10107
O          3.81362         9.34806         1.36546
O          8.74229         4.35158        -1.20268
H          8.99832         5.15444        -1.69872
O         -1.15651         0.12376        -1.76829
O          2.16596        -1.06611        -1.87798
H          3.01233        -1.10908        -2.38400
O          7.30675         5.68557         1.96476
O         -6.33594         2.87923         1.14870
H         -6.31895         3.65213         1.81057
O         -2.88568        -6.53926         1.05381
O          6.66429         0.30844        -1.35856
H          7.02225        -0.22675        -2.09807
O         -5.63169         7.91875         0.84686
O          1.72853        -5.49724         1.61506
H          2.34577        -4.78215         1.91547
O          3.56678        -8.96387        -2.20546
O          2.66406         6.47716        -1.04213
H          2.92868         5.72033        -1.61759
O         -1.25962        -4.01310        -2.10406
H         -0.88944        -3.22441        -2.56623
O         -7.59612        -1.86529        -2.18090
H         -8.52882        -1.92098        -2.49090
O         -8.65229         3.16734        -3.01154
H         -9.11916         2.41469        -2.50152
H         12.09332        -1.57075         0.28533
H         12.09313         0.86292         0.26634
H         10.76313         3.05944         0.29999
H          9.64438         5.22686         0.46118
H          7.83573         6.88188        -1.24632
H          6.86810         9.19033        -1.51847
H          4.81703        10.44254        -1.60151
H          2.49084        10.35813        -1.64681
H         -0.17226        11.22587        -1.12804
H         -2.57503        11.28016        -0.63856
H         -4.96786        11.18914        -1.12970
H         -7.12228        10.16410        -1.12932
H         -8.33744         7.70802        -1.21263
H         -9.68947         5.72544        -0.31991
H        -10.69982         3.57109         0.67982
H        -11.82599         1.35545         1.26645
H        -11.86941        -1.06284         1.34118
H        -10.90737        -3.40152         0.73603
H         -8.59782        -4.97802         1.86567
H         -8.48604        -7.66351         0.53853
H         -7.12971        -9.80957         1.03440
H         -4.96732       -10.93614         1.20927
H         -2.58569       -11.09477         0.70044
H         -0.03277       -11.19118         0.29602
H          2.40316       -11.17461        -0.04846
H          4.95198       -11.10605        -0.07302
H          7.06159       -10.00721        -0.53997
H          8.34895        -7.89188        -0.56133
H          9.39802        -5.27257        -1.50104
H         10.60946        -3.95381         0.90770
