         268
 CSIRO Nanostructure Databank - Neutral Graphene Oxide Data Set
C        -11.18036         0.63050        -0.02872
C         -9.94184         1.35035        -0.43136
C         -8.63720         0.63115        -0.27130
C         -7.36667         1.37076        -0.08453
C         -6.22009         0.68875         0.17557
C         -4.95308         1.47499         0.47130
C         -3.65298         0.66717         0.45372
C         -2.46698         1.35366         0.40437
C         -1.18663         0.64244         0.56611
C          0.09357         1.43457         0.64846
C          1.23078         0.87774         1.51109
C          2.60499         1.55131         1.34864
C          3.89293         0.79203         1.20195
C          5.13753         1.57021         0.84478
C          6.40942         0.81046         0.67137
C          7.73278         1.51144         0.88219
C          8.95733         0.77206         0.41213
C         10.23482         1.58466         0.15879
C         11.16064         0.89138        -0.82354
C         -9.89952         2.81439        -0.55858
C         -8.70351         3.51588        -0.58674
C         -7.40661         2.90345        -0.05058
C         -6.15078         3.42469        -0.81891
C         -4.89578         2.69970        -0.47094
C         -3.61279         3.47762        -0.48065
C         -2.38830         2.79527         0.01776
C         -1.22958         3.63100         0.55965
C          0.07732         2.89064         0.38856
C          1.36559         3.66920         0.48690
C          2.62996         2.98564         0.89681
C          3.87967         3.81405         1.08432
C          5.16655         3.03841         1.20606
C          6.46475         3.79373         1.08085
C          7.76346         3.01335         0.96297
C          8.94187         3.74319         0.41921
C          9.99524         3.06554        -0.09046
C         -8.65923         4.89585        -0.90009
C         -7.45932         5.66213        -0.91241
C         -6.12434         4.93382        -1.28876
C         -4.91982         5.71246        -0.73339
C         -3.68880         4.97323        -0.35207
C         -2.41403         5.73804        -0.20383
C         -1.09176         4.99674        -0.14856
C         -0.02127         5.85007         0.53141
C          1.34912         5.17383         0.75440
C          2.53475         5.76933        -0.10157
C          3.85718         5.20213         0.50132
C          5.17207         5.83818         0.16669
C          6.42482         5.20729         0.64117
C          7.62359         5.95949         0.53547
C          8.97611         5.25609         0.59166
C         -7.43918         7.02926        -0.81363
C         -6.19699         7.87865        -0.71967
C         -4.92635         7.06619        -0.66339
C         -3.67377         7.88448        -0.43619
C         -2.35901         7.16438        -0.73000
C         -1.39430         8.03576         0.07355
C         -0.08073         7.33820         0.41771
C          1.12543         7.98251        -0.28908
C          2.50976         7.29672        -0.21710
C          3.79309         8.06307        -0.17833
C          5.13337         7.33098        -0.07514
C          6.35005         8.18735         0.23297
C          7.58380         7.34627         0.49040
C         -6.02922         8.99651        -1.73525
C         -4.84786         9.65457        -1.83632
C         -3.64502         9.22602        -1.14290
C         -2.47422         9.95157        -1.10127
C         -1.25021         9.42397        -0.51916
C         -0.08053        10.13436        -0.35691
C          1.19291         9.47873        -0.05233
C          2.35345        10.12098         0.27091
C          3.77219         9.56380         0.11464
C          4.75598         9.82663         1.24275
C          5.94516         9.20016         1.29533
C        -11.18390        -0.63431         0.43818
C         -9.93351        -1.39880         0.69321
C         -8.64768        -0.73217         0.34923
C         -7.46122        -1.60749        -0.02269
C         -6.15475        -0.80256         0.04007
C         -4.87814        -1.53562         0.33456
C         -3.65669        -0.77343         0.71338
C         -2.52100        -1.45675         1.08984
C         -1.21171        -0.79998         0.97027
C         -0.00863        -1.38033         1.69415
C          1.26068        -0.62304         1.21102
C          2.52177        -1.29483         0.76545
C          3.86791        -0.65310         0.84998
C          5.00780        -1.30746         0.48589
C          6.38129        -0.71942         0.79821
C          7.51244        -1.35824         0.00699
C          8.80416        -0.62419        -0.09224
C          9.71415        -1.13205        -1.19376
C         11.01363        -0.36554        -1.27246
C         -9.90928        -2.88489         0.74413
C         -8.75978        -3.59967         0.80233
C         -7.41639        -2.87249         0.87414
C         -6.22429        -3.74187         0.49806
C         -4.82641        -3.07428         0.40566
C         -3.81000        -3.64723         1.39502
C         -2.53517        -2.87795         1.53616
C         -1.25445        -3.65442         1.52019
C          0.04458        -2.89721         1.53814
C          1.30780        -3.55239         1.07325
C          2.46222        -2.77380         0.53526
C          3.68834        -3.48622         0.09571
C          4.96752        -2.70438        -0.04405
C          6.23829        -3.44703        -0.28979
C          7.51492        -2.68689        -0.29312
C          8.68091        -3.38589        -0.85981
C          9.79677        -2.64299        -1.19437
C         -8.83521        -5.11428         0.64147
C         -7.61217        -5.92356         1.14975
C         -6.28597        -5.19771         0.80539
C         -5.04781        -5.92187         1.27910
C         -3.78572        -5.16068         1.52559
C         -2.45369        -5.89205         1.48380
C         -1.24381        -5.01391         1.36547
C          0.05080        -5.72538         1.19462
C          1.23994        -4.98861         0.67888
C          2.47285        -5.75837         0.31836
C          3.73473        -4.98957         0.00770
C          5.03067        -5.68713        -0.18752
C          6.33546        -4.93910        -0.01727
C          7.46754        -5.59026        -0.77590
C          8.58935        -4.80975        -1.08995
C         -7.46234        -7.22347         0.39233
C         -6.29247        -8.05192         0.55689
C         -5.00711        -7.41680         1.10487
C         -3.68893        -8.13694         0.74606
C         -2.40486        -7.38049         1.13949
C         -1.11351        -8.03847         0.60879
C          0.07012        -7.14974         0.79600
C          1.25423        -8.00882         0.41476
C          2.57709        -7.25123         0.57282
C          3.85321        -7.94239         0.15688
C          5.06513        -7.16714        -0.19496
C          6.16924        -7.74033        -0.82436
C          7.33072        -6.95596        -1.11955
C         -6.07234        -9.21823        -0.34683
C         -4.91536        -9.34637        -1.01650
C         -3.76831        -8.37438        -0.77596
C         -2.46789        -8.79120        -1.39489
C         -1.23657        -8.53106        -0.83095
C         -0.03756        -8.88189        -1.52198
C          1.23530        -8.71769        -0.91933
C          2.41274        -9.31873        -1.33693
C          3.65571        -9.34426        -0.43595
C          4.89858        -9.82841        -1.15213
C          6.04859        -9.13238        -1.26028
O          5.86440         3.46480         2.39541
O         -7.72079        -6.10890         2.55682
H         -7.01715        -6.73644         2.84561
O         -4.65246        -5.55744         2.63627
O         -3.22773         5.48271         0.97218
O          2.28376         3.14079        -0.51049
O         -2.35722        -6.94023         2.50763
O         -0.58090         4.79569        -1.47205
H         -1.12849         4.10460        -1.91837
O          0.69597         7.74974        -1.63764
O          3.47617        -7.73568         1.58240
O          5.46099        -2.94800        -1.41842
O          7.86768        -4.44166         1.76678
H          7.58920        -0.82032         2.36737
O         -2.60632         2.99459        -1.42862
O          7.98057         2.17881         2.15021
O          6.64241        -1.03597         2.19084
O          3.87110         4.97129         1.94452
O          3.19770         7.73722        -1.44931
O         -4.23612        -3.50396        -0.84148
H         -4.66086        -2.97783        -1.55888
O         -5.57072         2.50799        -1.75099
O         -9.24080         0.68522        -1.59293
O          1.04548        -3.42299         2.50227
O         -0.28263         6.68534         1.70959
O          0.25417         1.94809        -0.70380
O          5.34370         6.41504        -1.17702
O          0.28936        -6.73914         2.19724
O          0.81423         1.16734         2.84944
H          1.59549         1.09982         3.44136
O         -5.25363        -1.16206        -1.05515
O          6.70492         8.90822        -0.97866
H          6.43751         8.35228        -1.74239
O          3.41626         1.22472         2.52120
O         -7.13355        -2.48098         2.22617
H         -7.86257        -1.88319         2.52881
O         -3.49961        -3.02844         2.65748
O         -1.39032         3.81797         1.97244
H         -2.12830         4.46042         2.11339
O         10.98290         1.59881         1.40881
H         10.81477         0.73268         1.84693
O         -6.06555         4.99623        -2.63975
O          1.57306        -0.71979        -0.20117
O          0.94500        -9.09893         1.39679
O         -5.84545        -8.16509         1.99749
O         -6.35866        -4.72258        -0.57220
O         -0.98189        -0.44126        -0.41994
O          4.22497        -5.31339        -1.35053
O          1.47339        -5.38949        -0.70046
O         -7.66924        -2.07113        -1.36767
H         -7.51286        -1.32532        -1.98571
O         -3.57389         8.16647         1.01349
O         -2.12658         8.25834         1.33502
O          2.39917         5.32552        -1.44942
H          1.81359         5.96877        -1.91898
O         -0.59979        -9.21150         1.39105
O          6.58716        -5.07700         1.45803
O          2.68973        -3.02599        -0.87862
O         -9.07354        -0.75447         1.74002
O          3.40613       -10.30474         0.60895
H          2.66930        -9.97474         1.17399
O          5.67287         1.30739        -0.49000
O         -9.01278        -5.36773        -0.75981
H         -8.26044        -4.93787        -1.23054
O          9.32571        -0.38813         1.26442
O         -6.36008         8.53433         0.58044
H         -5.47510         8.62075         1.00369
O         -5.05047         1.98554         1.81934
H         -5.89461         2.53115         1.87013
O         -0.21426        -1.14352         3.09271
H          0.30365        -1.80656         3.59897
O         -7.27829         3.34648         1.25612
O         -3.64483        -9.40978         1.38207
H         -3.63659        -9.26906         2.35242
O         -4.12017        -7.07009        -1.32793
H         -4.10427        -7.12505        -2.30674
O          9.55815         5.52784         1.87316
H         10.18121         4.80672         2.09923
O          1.61447         5.27165         2.15814
H          0.97876         5.90599         2.56641
O          8.80302        -5.51961         1.79045
H          8.62751        -5.96407         2.65606
O          4.27826        10.22839        -1.06723
H          3.80526         9.82796        -1.83073
O         -2.00162         7.16435        -2.10383
H         -1.01093         7.28756        -2.16058
O          8.98377        -0.77792        -2.41692
H          9.43325        -1.20060        -3.17841
H         11.81214        -0.80990        -1.88949
H         12.11274         1.41254        -1.01345
H         10.85688         3.63422        -0.47802
H          9.63368         5.69807        -0.21634
H          8.54146         7.88989         0.46923
H          6.65472         9.42633         2.10556
H          4.49711        10.57039         2.01222
H          2.31779        11.21708         0.39144
H         -0.06150        11.20930        -0.59942
H         -2.43720        10.94427        -1.57756
H         -4.77056        10.53437        -2.49462
H         -6.90843         9.35080        -2.29320
H         -8.36043         7.53266        -0.47076
H         -9.57288         5.35836        -1.31428
H        -10.85428         3.35871        -0.64803
H        -12.13448         1.16612        -0.15098
H        -12.14002        -1.12451         0.67694
H        -10.87449        -3.41135         0.67842
H         -9.74689        -5.49564         1.16345
H         -8.06694        -7.35299        -0.52075
H         -6.90132        -9.92428        -0.50725
H         -4.76578       -10.18346        -1.71510
H         -2.50401        -9.22731        -2.40616
H         -0.11636        -9.35759        -2.51048
H          2.40397        -9.94420        -2.24288
H          4.85873       -10.86294        -1.52486
H          6.91826        -9.58875        -1.75677
H          8.15649        -7.44368        -1.66031
H          9.44369        -5.29805        -1.58506
H         10.67689        -3.13372        -1.63917
