         762
 CSIRO Nanostructure Databank - Neutral Graphene Oxide Data Set
C         22.67534        24.55531         1.41166
C         21.80643        24.97486         0.36144
C         22.83243        27.18837         0.50459
C         21.87451        26.25569        -0.11593
C         22.77659        28.67563         0.38169
C         21.81122        29.36196        -0.49971
C         22.85884        31.56269        -0.12970
C         21.80366        30.71221        -0.62587
C         22.87996        32.92251        -0.43908
C         21.72304        33.64445        -0.88227
C         22.95936        35.77116        -0.87499
C         21.76471        34.99953        -1.08616
C         22.87215        37.24643        -0.76104
C         21.77388        38.01928        -1.34409
C         22.96628        40.14798        -0.98890
C         21.80701        39.38170        -1.36736
C         22.89286        41.62371        -0.92613
C         21.75951        42.38906        -1.45214
C         23.07500        44.47606        -1.53047
C         21.82865        43.73939        -1.59285
C         23.07261        45.91780        -1.69547
C         21.93495        46.64481        -1.38265
C         23.16408        48.74647        -1.45336
C         21.96490        48.05275        -1.31078
C         25.95385        23.13274         2.86939
C         25.73616        24.44070         2.42765
C         23.75024        25.36592         1.77251
C         25.29405        27.28800         1.20591
C         24.02358        26.59735         1.15028
C         25.28518        28.71009         1.02960
C         23.99339        29.44418         0.84693
C         25.21745        31.77723         0.94160
C         23.97470        30.93679         0.64499
C         25.41471        32.94510        -0.01962
C         24.17493        33.64606        -0.50096
C         25.40711        35.86039        -0.52627
C         24.16984        35.12382        -0.63387
C         25.42568        37.23933        -0.59494
C         24.19001        38.03623        -0.53277
C         25.42909        40.23485        -0.72496
C         24.18937        39.50362        -0.76059
C         25.49163        41.62374        -0.86122
C         24.24661        42.40592        -0.85950
C         25.57429        44.40529        -1.67851
C         24.27033        43.78476        -1.34550
C         25.59549        45.85038        -2.10559
C         24.28495        46.65204        -2.24990
C         25.59004        48.82816        -1.89376
C         24.36336        48.10108        -1.80174
C         25.63437        50.22591        -1.76110
C         28.00975        23.06687         1.58902
C         27.07364        22.44300         2.44079
C         27.84722        24.43258         1.26539
C         26.67375        25.15584         1.63523
C         27.76599        27.29207         0.99828
C         26.54039        26.57464         1.28468
C         27.72586        28.73447         0.96138
C         26.50209        29.43328         1.03057
C         27.79334        31.67763         1.01230
C         26.50122        30.92973         1.13405
C         27.79571        33.10811         0.58572
C         26.65949        33.73717         0.14864
C         27.91095        35.90460        -0.13898
C         26.71427        35.07498        -0.58234
C         27.92684        37.24981        -0.25780
C         26.70766        37.97395        -0.69827
C         27.88358        40.22334        -0.10801
C         26.70603        39.46829        -0.70671
C         27.98321        41.59827        -0.73057
C         26.74148        42.34350        -0.96179
C         28.05579        44.43978        -1.08592
C         26.81952        43.71754        -1.22498
C         28.13248        45.87097        -1.48802
C         26.90988        46.59560        -2.01347
C         28.12115        48.87212        -1.58632
C         26.87530        48.11078        -2.02523
C         28.04180        50.32484        -1.32989
C         26.82207        50.95210        -1.54348
C         30.33598        20.16357         1.15806
C         29.18952        20.91055         1.36697
C         30.30870        22.92197         0.54960
C         29.18058        22.30213         1.15076
C         30.19224        24.36285         0.15378
C         28.94076        25.13113         0.55344
C         30.32064        27.27970         0.90658
C         28.97823        26.59542         0.75104
C         30.27301        28.73169         0.43916
C         28.96666        29.46851         0.60638
C         30.25124        31.59885         0.76186
C         29.04727        30.92579         0.78033
C         30.25794        33.04613         0.65213
C         29.09106        33.74856         0.49514
C         30.36592        35.88993         0.49540
C         29.19926        35.13392        -0.08507
C         30.23335        37.36220         0.79970
C         29.20668        38.01246        -0.12961
C         30.37896        40.23615         0.41203
C         29.21390        39.49824        -0.15526
C         30.30276        41.71689         0.38785
C         29.25045        42.36968        -0.45153
C         30.43268        44.56572        -0.32204
C         29.21809        43.83687        -0.57347
C         30.41580        46.00910        -0.50123
C         29.28368        46.65219        -0.97061
C         30.37990        48.90999        -0.32947
C         29.19113        48.11847        -0.87083
C         30.45192        50.36525        -0.63620
C         29.28585        51.04263        -1.08534
C         30.60226        53.07912        -1.33115
C         29.38257        52.41870        -1.38595
C         32.82611        18.56323         0.55653
C         32.77963        20.02075         0.75414
C         31.50106        20.78675         0.69701
C         32.66120        22.60250        -0.52215
C         31.48651        22.16216         0.35528
C         32.77438        24.52888        -0.42647
C         31.43489        25.18492        -0.07712
C         32.77981        27.30033         0.11678
C         31.50027        26.56101         0.29580
C         32.79728        28.79588         0.33067
C         31.52544        29.50147         0.56213
C         32.76099        31.57473         0.95395
C         31.52299        30.87795         0.73558
C         32.63198        33.04631         1.32977
C         31.59011        33.72775         0.42422
C         32.80400        35.99332         0.59943
C         31.51994        35.22031         0.67822
C         32.71650        37.43255         1.04965
C         31.55303        38.12541         0.86909
C         32.72391        40.37052         1.21552
C         31.49588        39.58889         0.88074
C         32.82182        41.80104         0.84514
C         31.56412        42.52728         0.61448
C         32.86661        44.57887         0.19209
C         31.60547        43.91914         0.13091
C         32.89476        46.01367        -0.13360
C         31.61532        46.76629        -0.19234
C         32.81720        48.89642         0.31491
C         31.62515        48.13905        -0.14180
C         32.78901        50.41234         0.24082
C         31.66396        51.07350        -0.47403
C         33.08194        53.12129        -0.88705
C         31.76550        52.42137        -0.89355
C         33.17480        54.56119        -1.21095
C         35.25595        18.60429         0.11969
C         33.98603        17.92329         0.24938
C         35.31962        19.99598         0.34571
C         34.06807        20.75436         0.58501
C         35.33936        22.88527         0.09934
C         34.05645        22.12444        -0.04562
C         35.37686        24.38807         0.05963
C         34.12897        25.18086        -0.18728
C         35.23655        27.28204         0.60347
C         34.08364        26.60760         0.25793
C         35.20597        28.69158         0.94819
C         34.04369        29.42949         0.79935
C         35.17673        31.52652         1.41545
C         33.97786        30.86216         1.07674
C         35.22356        33.00376         1.48376
C         33.95800        33.79576         1.38325
C         35.23111        35.88362         0.95146
C         34.03107        35.23843         1.03850
C         35.28946        37.35587         1.14603
C         33.99994        38.10972         1.34951
C         35.30207        40.28993         1.02006
C         34.03620        39.60961         1.33839
C         35.30236        41.70512         0.89672
C         34.04134        42.45700         0.79905
C         35.29208        44.62591         0.67506
C         34.06051        43.90177         0.53910
C         35.36292        46.02209         0.56007
C         34.17624        46.77484         0.11213
C         35.32129        48.90335         0.55125
C         34.12992        48.22509         0.39030
C         35.35551        50.37947         0.74155
C         34.07732        51.15570         0.49286
C         35.36914        53.38748         0.34381
C         34.22997        52.51745        -0.12589
C         35.36502        54.81336        -0.09356
C         34.28106        55.29088        -0.92434
C         37.63085        15.85483        -0.93534
C         36.48327        16.52836        -0.54472
C         37.63770        18.70021        -0.48113
C         36.45729        17.93806        -0.29291
C         37.72798        20.07117        -0.06692
C         36.52830        20.71155         0.36047
C         37.77277        22.90589         0.87080
C         36.44460        22.15381         0.87017
C         37.80075        24.34905         0.79640
C         36.46352        25.06647         0.88979
C         37.76204        27.14697         1.22832
C         36.58038        26.55485         0.44192
C         37.69460        28.55323         1.72941
C         36.31747        29.27773         1.81576
C         37.74998        31.58381         1.68380
C         36.39104        30.80326         1.73299
C         37.74943        32.93342         1.14846
C         36.48083        33.63806         0.97440
C         37.74993        35.87537         0.50041
C         36.46901        35.11902         0.69913
C         37.75610        37.38239         0.55290
C         36.51462        38.12114         0.87766
C         37.77986        40.22491         0.73727
C         36.51689        39.52649         0.89297
C         37.76677        41.65925         0.64712
C         36.53476        42.38515         0.76617
C         37.74462        44.57831         0.47867
C         36.54610        43.86837         1.07220
C         37.88600        46.05765         0.84161
C         36.58313        46.79039         0.60100
C         37.72541        48.90719        -0.24364
C         36.57478        48.17230         0.44528
C         37.89478        50.36767         0.16733
C         36.67890        51.10348         0.62277
C         37.98527        53.28187         0.35318
C         36.68040        52.61597         0.61069
C         38.15513        54.60545         0.72387
C         36.32839        55.69733         0.38208
C         37.93581        57.53251        -0.15131
C         36.68260        56.98692        -0.16155
C         40.10191        14.54407        -1.96701
C         40.04725        15.87535        -1.58676
C         38.84184        16.53518        -1.15948
C         40.08230        18.78926        -1.15710
C         38.80960        18.01133        -1.05372
C         40.12068        20.25598        -0.84101
C         38.94710        20.82545        -0.16574
C         40.29616        22.96102         0.19599
C         39.08325        22.14336         0.42223
C         40.27476        24.35099         0.52778
C         39.03540        25.05252         0.77350
C         40.29795        27.15533         1.14351
C         39.07229        26.47080         0.98520
C         40.32056        28.59849         1.56711
C         39.01369        29.31306         1.81515
C         40.29477        31.50675         1.23047
C         38.99843        30.78066         1.45991
C         40.30498        33.00657         1.37216
C         38.99693        33.71159         1.17747
C         40.33416        35.89435         0.83197
C         39.04660        35.12032         0.65632
C         40.23361        37.37880         0.90860
C         39.05026        38.07115         0.76987
C         40.24845        40.24218         0.72342
C         39.01233        39.52683         0.77010
C         40.23803        41.64602         0.46178
C         38.99419        42.33237         0.40458
C         40.24554        44.49174         0.07890
C         38.95834        43.77953         0.12313
C         40.31639        45.83786         0.29167
C         39.08665        46.68685         0.14968
C         40.29590        48.97863        -0.44221
C         39.06274        48.14486        -0.24371
C         40.22763        50.36632        -0.96494
C         39.01287        51.14380        -0.50261
C         40.34080        53.28053        -0.39070
C         39.11804        52.60087        -0.21479
C         40.49093        54.67790        -0.12834
C         39.35047        55.38678         0.45642
C         40.46121        57.59533        -0.33661
C         39.23777        56.93209         0.21022
C         40.50857        58.98356        -0.35757
C         42.55565        14.49350        -2.07112
C         41.35299        13.86429        -2.15181
C         42.62462        15.99341        -1.96444
C         41.34847        16.57065        -1.34720
C         42.63969        18.75228        -0.88622
C         41.35056        18.02947        -1.00774
C         42.74059        20.13082        -0.73192
C         41.47416        20.93556        -0.71432
C         42.73560        22.99298        -0.12562
C         41.49466        22.30408        -0.15410
C         42.70281        24.39189         0.13099
C         41.49489        25.09770         0.48992
C         42.80072        27.29498         0.75906
C         41.51047        26.48398         0.85192
C         42.84924        28.58288         1.68641
C         41.59134        29.39662         1.41073
C         42.78524        31.60329         1.37619
C         41.58696        30.77763         1.35566
C         42.78765        33.00149         1.37832
C         41.58012        33.76031         1.25872
C         42.80613        35.90844         1.35802
C         41.58141        35.16791         1.24973
C         42.73890        37.38373         1.51008
C         41.45468        38.13637         1.27565
C         42.70567        40.28924         0.84358
C         41.49706        39.58292         0.93549
C         42.72530        41.65986         0.41954
C         41.49221        42.30616         0.23966
C         42.78497        44.45265        -0.31893
C         41.47438        43.71530        -0.16737
C         42.77649        45.89807        -0.02712
C         41.61611        46.43336         0.42415
C         42.80565        49.08684        -0.47037
C         41.52864        48.59912         0.00740
C         42.84415        50.37449        -0.92676
C         41.54699        51.11127        -1.24599
C         42.89409        53.19087        -0.76380
C         41.58310        52.48894        -0.60874
C         42.81656        54.65510        -1.02822
C         41.62984        55.41834        -0.57040
C         42.79897        57.54505        -1.33833
C         41.62723        56.82351        -0.66299
C         42.83765        59.01762        -1.03659
C         41.72415        59.68217        -0.64087
C         45.17274        15.94028        -1.30627
C         43.85106        16.55686        -1.25863
C         45.47389        18.90319        -0.87773
C         43.72386        17.80876        -0.69725
C         45.27439        20.26547        -1.01741
C         43.99750        20.88218        -0.62553
C         45.27078        22.96385        -0.22232
C         43.97024        22.25232        -0.34303
C         45.22670        24.44208        -0.09489
C         43.92472        25.11874         0.14616
C         45.32163        26.79942         1.06622
C         43.99763        26.35136         0.77305
C         45.36537        28.91518         1.58746
C         44.11323        29.43039         1.44742
C         45.37407        31.64261         1.31728
C         44.06827        30.88413         1.19413
C         45.34853        33.08483         1.70752
C         44.00276        33.78892         1.86018
C         45.28766        35.99026         1.39623
C         44.04908        35.26138         1.46213
C         45.28783        37.43049         1.29289
C         44.02194        38.15875         1.49857
C         45.25257        40.31499         0.82172
C         43.99028        39.64831         1.19389
C         45.24626        41.70375         0.51712
C         43.99845        42.38811         0.29853
C         45.25844        44.53423         0.02325
C         44.04020        43.75825         0.00879
C         45.27106        45.94829        -0.20838
C         43.99315        46.67868        -0.37858
C         45.31871        48.86219        -0.74384
C         43.99857        48.18683        -0.60385
C         45.31641        50.26877        -1.05825
C         44.12077        51.03383        -1.13298
C         45.33831        53.20350        -1.16118
C         44.13402        52.46599        -1.17391
C         45.37310        54.61515        -1.07707
C         44.12919        55.38391        -1.24341
C         45.32426        57.45361        -0.80842
C         44.12409        56.83932        -1.07688
C         46.35081        16.61957        -1.42821
C         47.64578        18.94472        -2.13815
C         46.42542        18.09604        -1.61138
C         47.62387        20.38359        -1.80696
C         46.46471        21.01234        -1.38223
C         47.67460        23.24431        -1.05745
C         46.59528        22.29672        -0.59966
C         47.64900        24.58728        -0.83161
C         46.31254        25.32999        -0.68618
C         47.29579        27.61377        -0.13905
C         46.37268        26.58150         0.17717
C         47.64481        28.80721         0.50061
C         46.62621        29.55076         1.22264
C         47.94089        31.65579         1.18071
C         46.66949        30.92482         1.35983
C         47.90564        33.14787         1.15257
C         46.61595        33.85400         1.49293
C         47.74061        35.98202         0.97831
C         46.55277        35.31366         1.28142
C         47.80048        37.47275         1.22803
C         46.46030        38.16656         1.11216
C         47.70319        40.31449         0.74557
C         46.45781        39.58875         0.89868
C         47.70840        41.73383         0.63086
C         46.47551        42.43027         0.44693
C         47.72987        44.55182         0.08161
C         46.49049        43.84157         0.20611
C         47.71421        45.92490        -0.24224
C         46.48518        46.66056        -0.35906
C         47.79934        48.74608        -0.90688
C         46.48735        48.08344        -0.67696
C         47.87509        50.23362        -1.13236
C         46.58655        50.97364        -1.31589
C         47.87445        53.17142        -0.90216
C         46.62020        52.48280        -1.29662
C         47.85596        54.58029        -0.77213
C         46.59404        55.32730        -0.88544
C         46.53987        56.71892        -0.74278
C         50.11824        18.92384        -2.07643
C         48.95240        18.26985        -2.23941
C         50.20285        20.40312        -2.01698
C         48.90079        21.15742        -1.96442
C         50.22199        23.20947        -1.12163
C         48.93719        22.60722        -1.54388
C         50.17753        24.55767        -0.44586
C         48.92835        25.30203        -0.84963
C         50.22742        27.44396        -1.01639
C         49.02112        26.62707        -1.06886
C         50.10512        28.89387        -0.61661
C         48.96039        29.47016         0.20285
C         50.18884        31.74790        -0.03551
C         49.10911        30.93214         0.57560
C         50.09631        33.15830        -0.06536
C         48.98436        33.88605         0.46204
C         50.12821        36.06972         0.27552
C         48.93307        35.29948         0.54075
C         50.15407        37.44478         0.36886
C         48.83731        38.15872         0.35258
C         50.16379        40.28832         0.76837
C         48.92656        39.62146         0.66989
C         50.15414        41.71651         0.86982
C         48.95527        42.43501         0.66325
C         50.20437        44.52266         0.29013
C         48.98410        43.85698         0.35852
C         50.29915        45.87118        -0.26912
C         48.99261        46.60406        -0.51862
C         50.22335        48.76889        -0.33281
C         49.03797        48.06951        -0.49866
C         50.18671        50.22739        -0.26598
C         49.07571        50.96162        -0.65652
C         50.24274        53.13839        -0.30545
C         49.05428        52.42611        -0.61302
C         50.24238        54.54303        -0.31112
C         49.06811        55.25271        -0.50902
C         52.58114        20.30460        -0.95669
C         51.49065        21.10711        -1.53719
C         52.56443        23.14991        -0.42409
C         51.40469        22.52798        -1.08657
C         52.70052        24.62349        -0.39598
C         51.48044        25.33221        -0.62754
C         52.68960        27.46432        -0.72767
C         51.49131        26.71908        -0.81083
C         52.63357        28.90567        -0.75156
C         51.39961        29.62758        -0.52429
C         52.50643        31.76726        -1.03329
C         51.34522        31.03097        -0.50222
C         52.50822        33.26046        -0.97561
C         51.22641        33.94833        -0.61874
C         52.64067        36.06712        -0.08024
C         51.32376        35.40703        -0.28121
C         52.62946        37.41623         0.32012
C         51.40243        38.16300         0.42201
C         52.66700        40.20395         1.09310
C         51.39636        39.53508         0.74358
C         52.69935        41.71122         1.24562
C         51.39967        42.45121         1.14168
C         52.74590        44.57972         0.56849
C         51.43549        43.92636         0.82455
C         52.74226        45.93325         0.22250
C         51.52788        46.66346        -0.04341
C         52.68723        48.83522         0.13257
C         51.48216        48.06101        -0.12208
C         52.64122        50.17377         0.40809
C         51.36783        50.91011         0.29875
C         52.79412        53.00708         0.03706
C         51.44093        52.41881         0.18454
C         53.43615        20.85639        -0.05712
C         55.40582        23.45229         0.57223
C         53.43639        22.27787         0.18417
C         55.24831        24.72427        -0.03691
C         53.93376        25.34100        -0.32508
C         55.12964        27.52413        -0.71642
C         53.92877        26.76591        -0.57284
C         55.08885        28.91093        -0.94868
C         53.85227        29.60184        -0.86680
C         55.09317        31.81215        -0.95469
C         53.83497        31.04754        -1.11337
C         55.07302        33.18128        -0.79029
C         53.82365        33.97888        -0.82223
C         55.12898        35.94739        -0.01229
C         53.86043        35.35346        -0.26517
C         55.16580        37.22802         0.72928
C         53.88627        38.02815         0.79019
C         55.13814        40.19078         0.93184
C         53.94567        39.50171         0.89800
C         55.14457        41.64643         0.87133
C         53.97331        42.40331         0.94497
C         55.22136        44.52603         0.62129
C         53.97629        43.83694         0.69861
C         55.26975        45.95008         0.46849
C         54.02568        46.64112         0.07506
C         55.20918        48.87278         0.49269
C         53.99696        48.15199         0.06092
C         55.14423        50.18681         0.88451
C         53.82964        50.93669         0.96569
C         53.90455        52.31562         0.33986
C         57.80930        23.50782         0.36709
C         56.65417        22.86093         0.78391
C         57.72794        24.80921        -0.16014
C         56.45919        25.42227        -0.30708
C         57.54373        27.42390        -1.48435
C         56.48356        26.91556        -0.50046
C         57.50284        28.93382        -1.71553
C         56.31374        29.67390        -1.19541
C         57.63697        31.79187        -0.95955
C         56.32553        31.05039        -1.08212
C         57.54249        33.25932        -1.37136
C         56.29102        33.99481        -1.01998
C         57.58266        36.08770        -0.38110
C         56.33372        35.38045        -0.49322
C         57.66676        37.35518         0.20267
C         56.51439        37.88692         1.04307
C         57.71694        40.16799         0.92890
C         56.42849        39.43886         1.08939
C         57.71155        41.60694         0.52924
C         56.41073        42.34849         0.54914
C         57.68680        44.49226         0.75506
C         56.46345        43.81868         0.67391
C         57.70339        45.94072         0.81468
C         56.46936        46.64915         0.57166
C         57.71674        48.85858         1.06900
C         56.48763        48.13016         0.48314
C         57.48642        50.20067         1.61303
C         56.29596        50.83736         1.45819
C         60.18193        24.81413        -0.63176
C         58.92970        25.45933        -0.71072
C         59.88273        26.95259        -2.35666
C         58.80535        26.62544        -1.51096
C         59.80597        29.23159        -2.76361
C         58.71619        29.75258        -2.03353
C         59.99635        31.84870        -1.81115
C         58.80197        31.10292        -1.63066
C         60.07600        33.25460        -1.39587
C         58.82586        34.02809        -1.38905
C         60.13886        36.03090        -0.51284
C         58.83169        35.47988        -0.92104
C         60.16001        37.39864        -0.03390
C         58.93097        38.05958         0.27057
C         60.17786        40.15514         0.67396
C         58.97134        39.43028         0.63789
C         60.17002        41.61063         0.90761
C         58.96660        42.34486         0.77665
C         60.15214        44.43569         1.15787
C         58.94153        43.75625         0.88654
C         60.21262        45.93920         1.25918
C         58.86961        46.62561         1.19004
C         59.82332        48.52510         2.38916
C         58.84039        48.01900         1.55660
C         61.26400        25.22765        -1.40467
C         61.10310        26.26974        -2.31812
C         60.97251        29.97170        -2.99294
C         61.08448        31.25978        -2.48269
C         61.25571        33.90967        -1.11861
C         61.28029        35.26681        -0.68594
C         61.36946        38.11675         0.08641
C         61.38242        39.46239         0.41716
C         61.35675        42.31908         1.15976
C         61.34003        43.70750         1.28231
C         61.02302        46.41679         2.44485
C         60.85666        47.67644         2.91487
O         42.46161        52.69191         0.55514
O         46.58977        18.49243        -3.02010
O         29.47056        29.00976        -0.73330
O         36.94150        26.59093        -0.89612
O         59.75028        27.95453        -3.33108
O         53.14178        33.87076        -2.12605
O         22.09201        28.05403         1.52978
O         27.21846        31.37280         2.34143
O         57.51205        48.71421        -0.37258
O         32.08118        25.07937        -1.46371
O         50.05242        28.51296        -2.03081
O         33.76897        46.38955        -1.25899
O         37.70625        50.61381         1.57597
O         37.61511        27.40350         2.65412
O         29.59670        38.70672        -1.33524
O         38.92325        47.05704        -1.24915
O         45.50277        27.63823         2.14583
O         44.75510        31.39764        -0.01468
O         43.27246        54.92605        -2.38919
O         56.68417        33.69160        -2.44176
O         57.02806        41.87652        -0.73299
O         51.27442        43.45024         2.21093
O         45.52549        23.63898         1.09033
O         37.68766        36.65018        -0.73223
O         58.79767        35.12983        -2.34430
O         34.63805        33.58213         2.69476
O         23.29389        37.68559         0.56839
O         39.54022        56.38966         1.51687
O         24.54554        25.00166         2.87153
O         25.64433        44.80072        -3.11616
O         39.18827        50.73480        -1.91035
O         39.32277        18.55466        -2.37137
O         29.16129        24.64885        -0.83991
O         41.36158        16.98382         0.05716
O         39.91764        35.32808        -0.48236
O         23.56528        30.33621         1.93438
O         46.65633        51.74464        -2.56730
O         44.07176        39.13822         2.57768
O         33.54064        20.56868         1.92615
O         52.67983        40.86055         2.42735
O         37.15878        55.26349         1.44554
O         48.40883        32.43204         2.34229
O         29.02029        41.70739        -1.73896
O         30.53481        42.34322         1.67457
O         50.92280        34.95154        -1.63831
O         43.81640        47.24419        -1.73570
O         37.97372        44.22863        -0.90034
O         23.41481        42.18352         0.31686
O         33.33492        40.12868         2.52207
O         44.76801        18.24808         0.13547
O         54.15943        47.39371        -1.18387
O         41.88854        37.78175         2.64287
O         27.84763        48.60703        -2.99312
O         39.49086        31.02330         0.09883
O         35.02653        22.20768        -1.13628
O         48.83031        22.22521        -2.96467
O         57.07818        27.95358        -2.73808
O         51.19907        20.90403        -2.95544
O         46.18739        33.42759         2.84556
O         57.16055        39.95123         2.26684
O         27.89860        46.07152        -2.93674
O         29.61447        37.49723         2.06112
O         47.89868        27.39364        -1.39671
O         51.12561        51.77697         1.48034
O         40.70467        20.98064        -1.98144
O         36.29399        34.15647        -0.40463
O         35.13234        24.96266        -1.23584
O         26.92379        38.73672        -1.94891
O         53.02077        31.31354        -2.31614
O         34.73581        37.62830         2.51951
O         32.80388        28.22997        -1.03735
O         32.44259        22.40907        -1.76395
O         39.81070        28.88393         2.95164
O         49.75592        46.00437        -1.62624
O         35.85352        53.15158         1.68102
O         34.17074        52.36860        -1.58194
O         26.99414        34.77368        -1.93763
O         42.07147        43.97519        -1.49864
O         48.04205        49.31491        -2.25833
O         38.66531        22.27143         1.83608
O         25.05619        32.83637        -1.41504
O         54.33589        22.75101         1.14643
O         39.58526        33.53369         2.54803
O         29.26014        48.54791         0.54191
O         54.36721        37.24767         1.96349
O         41.62545        47.67848         1.04479
O         37.06065        31.34353         2.94061
O         32.39417        49.72204         1.46301
O         34.55787        50.93884         1.83387
O         49.59369        29.88049         1.47731
O         53.58147        51.11875         2.39153
H         52.67105        51.50026         2.46923
O         24.95228        32.46615         2.18090
H         24.66509        31.78913         2.83425
O         27.58861        40.42825         1.29751
H         27.90465        39.65558         1.81571
O         42.81589        28.17235         3.06304
H         41.89934        28.24419         3.40632
O         36.02062        25.01809         2.25681
H         36.59186        25.60955         2.79886
O         42.56311        57.46753        -2.78312
H         42.68959        56.52054        -3.04375
O         45.86198        25.65882        -2.02030
H         46.50927        26.30050        -2.39416
O         56.95974        27.44858         0.79426
H         56.39114        27.07306         1.50001
O         48.24060        37.63458         2.60467
H         47.56279        37.24380         3.19541
O         42.82650        27.86680        -0.58082
H         42.71574        27.14726        -1.23812
O         37.25488        48.96558        -1.61131
H         37.52142        48.12106        -2.04646
O         36.66635        43.95508         2.53345
H         35.89662        43.49282         2.93044
O         41.60504        51.34426        -2.67466
H         40.70161        51.20063        -3.03999
O         29.55683        34.91232        -1.49525
H         28.67796        34.77684        -1.97550
O         33.03192        36.11934        -0.85824
H         32.88090        35.22106        -1.24768
O         32.06915        33.06181         2.66191
H         32.82326        33.05049         3.29617
O         47.16549        21.77755         0.65639
H         46.94158        22.44045         1.35398
O         35.81621        29.02740         3.15419
H         36.38947        29.52306         3.78065
O         57.92824        31.86914         0.47618
H         58.02991        30.95503         0.81677
O         60.96070        46.38293         0.07057
H         60.90801        47.36229         0.04217
O         48.33237        38.05886        -1.01459
H         49.04792        38.31805        -1.63208
O         24.03902        46.74098        -3.68920
H         24.39048        45.90780        -4.08389
O         38.19518        46.15431         2.25197
H         37.56875        45.57017         2.74393
O         43.73810        33.83973         3.29777
H         44.60742        33.99030         3.74014
O         56.87815        37.43589         2.36804
H         56.08164        37.54940         2.93551
O         42.62995        16.51973        -3.32714
H         43.41132        16.15926        -3.79630
O         50.05563        24.32428         0.99619
H         50.84677        23.81987         1.28309
O         31.97617        33.53649        -0.96299
H         31.20684        33.86037        -1.50083
O         36.01416        22.09816         2.24726
H         36.80183        21.88208         2.79315
O         30.58613        27.33824         2.35656
H         29.84647        27.81852         2.78758
H         22.50800        23.60010         1.92459
H         21.04355        24.27992        -0.01540
H         21.13201        26.63285        -0.83210
H         20.99607        28.76686        -0.93453
H         21.01312        31.17418        -1.23373
H         20.75828        33.12608        -0.96801
H         20.83420        35.52364        -1.34508
H         20.91127        37.49338        -1.77687
H         20.92855        39.91865        -1.75118
H         20.82614        41.87109        -1.71237
H         20.93348        44.27759        -1.93439
H         21.01236        46.12556        -1.08765
H         23.16422        49.82436        -1.24287
H         21.05166        48.59846        -1.03800
H         25.21729        22.66230         3.53221
H         24.69845        50.79920        -1.78941
H         27.22162        21.41689         2.79509
H         26.73946        52.04281        -1.43945
H         30.33283        19.08861         1.38247
H         28.29300        20.39172         1.72555
H         30.64336        54.13346        -1.63318
H         28.49811        52.96754        -1.73465
H         31.88625        17.99242         0.56937
H         32.35777        55.03606        -1.77020
H         33.94759        16.83981         0.07166
H         34.30782        56.34633        -1.23208
H         37.58685        14.76391        -1.06070
H         35.56874        15.94087        -0.39178
H         38.03007        58.48523        -0.69645
H         35.89878        57.55411        -0.68698
H         39.17672        13.96399        -2.08938
H         39.62993        59.56902        -0.05472
H         43.48555        13.92366        -2.21409
H         41.32103        12.78025        -2.33538
H         43.74604        59.57917        -1.29534
H         41.74349        60.77354        -0.51090
H         45.22017        14.83903        -1.33687
H         45.37667        58.54218        -0.66844
H         47.27718        16.03692        -1.54843
H         47.46056        57.29257        -0.57683
H         51.06163        18.36583        -2.16404
H         48.95338        17.18395        -2.41304
H         51.16604        55.09051        -0.08025
H         49.09607        56.34686        -0.43327
H         52.67278        19.24454        -1.22944
H         52.87728        54.00853        -0.41077
H         54.21153        20.24854         0.42855
H         54.89289        52.77324         0.18359
H         58.77464        23.00400         0.49516
H         56.70403        21.87870         1.27059
H         58.28216        50.68585         2.19532
H         56.16160        51.84474         1.87638
H         60.31780        23.94946         0.02957
H         59.79345        49.57149         2.72006
H         62.22463        24.70049        -1.32978
H         61.91605        26.56638        -2.99267
H         61.79117        29.52274        -3.56966
H         62.00191        31.83844        -2.65400
H         62.21012        33.36565        -1.15910
H         62.26079        35.68995        -0.42725
H         62.32342        37.61988        -0.13453
H         62.34361        39.99241         0.44345
H         62.31291        41.78850         1.25932
H         62.28536        44.23855         1.45861
H         61.83140        45.78114         2.83348
H         61.50533        48.06906         3.71097
