         224
 CSIRO Nanostructure Databank - Neutral Graphene Oxide Data Set
C        -10.97555         0.56810         1.02744
C         -9.75029         1.32511         1.03698
C         -8.50454         0.58806         0.95170
C         -7.26651         1.26849         0.97801
C         -6.05974         0.57478         0.67476
C         -4.76942         1.30868         0.57390
C         -3.73393         0.68473        -0.30918
C         -2.54416         1.49038        -0.74490
C         -1.33641         0.77321        -1.31142
C         -0.02779         1.55205        -1.51167
C          1.21322         0.70409        -1.26070
C          2.46915         1.46913        -0.87455
C          3.76540         0.71883        -1.14327
C          5.02672         1.45086        -0.84810
C          6.11699         0.77011        -0.11384
C          7.26549         1.54187         0.23759
C          8.45073         0.88522         0.83092
C          9.76078         1.55761         0.68488
C         10.92858         0.72739         0.87919
C         -9.74918         2.71807         1.09496
C         -8.53752         3.47284         1.16451
C         -7.26337         2.71868         1.27136
C         -5.96911         3.49827         1.21021
C         -4.69486         2.76980         0.86848
C         -3.47537         3.60977         0.50123
C         -2.39409         2.88850        -0.28642
C         -1.24840         3.59646        -0.54899
C          0.05039         2.82320        -0.61820
C          1.28030         3.64549        -0.97367
C          2.44531         2.96038        -1.22290
C          3.74348         3.69076        -1.29297
C          4.99758         2.96070        -0.88383
C          5.95819         3.60619         0.10367
C          7.30691         2.93138         0.10611
C          8.52613         3.67684         0.34125
C          9.76509         2.92217         0.51941
C         -8.51787         4.85691         1.22324
C         -7.30605         5.64694         1.18149
C         -6.03467         4.95948         0.97034
C         -4.94127         5.64152         0.48611
C         -3.78379         4.93421        -0.19150
C         -2.48132         5.73096        -0.23592
C         -1.25217         5.04921        -0.41994
C         -0.05956         5.79415        -0.63922
C          1.21431         5.11337        -0.89717
C          2.36963         5.85107        -1.00995
C          3.70430         5.22207        -1.27680
C          4.79319         5.88626        -0.44008
C          5.98531         5.13031         0.05348
C          7.31935         5.83141        -0.16752
C          8.50627         5.06113         0.35339
C         -7.37823         7.03147         1.10331
C         -6.17121         7.84857         1.01104
C         -4.90282         7.09507         0.60820
C         -3.81070         7.83175        -0.09198
C         -2.51165         7.13204        -0.20112
C         -1.32744         7.88895        -0.34597
C         -0.11129         7.20895        -0.58016
C          1.07964         8.02669        -0.89500
C          2.38451         7.32654        -1.15017
C          3.70908         8.12023        -1.11981
C          4.89194         7.34470        -0.58966
C          6.05657         8.00518        -0.11258
C          7.21859         7.28779         0.19280
C         -6.19869         9.31375         0.75011
C         -5.10348         9.99775         0.36358
C         -3.85637         9.33019        -0.10407
C         -2.55961        10.02576        -0.09771
C         -1.36818         9.34934        -0.23428
C         -0.10309        10.05964        -0.17408
C          1.08907         9.44364        -0.45568
C          2.36587        10.09016        -0.25450
C          3.57501         9.47026        -0.43707
C          4.80677        10.12304        -0.04130
C          5.98139         9.44900         0.08666
C        -10.97456        -0.79765         0.95769
C         -9.74568        -1.54912         0.88289
C         -8.52911        -0.83301         0.87732
C         -7.25163        -1.56145         0.88825
C         -6.02901        -0.81616         0.53000
C         -4.81778        -1.49926         0.11117
C         -3.71230        -0.79661        -0.32111
C         -2.41174        -1.52026        -0.57047
C         -1.32120        -0.72264        -1.27851
C         -0.02057        -1.44226        -1.28648
C          1.19611        -0.67007        -1.20012
C          2.44357        -1.46501        -1.01845
C          3.74697        -0.75393        -0.86941
C          4.84037        -1.36729        -0.09335
C          5.97702        -0.59805         0.24982
C          7.05318        -1.25349         1.03026
C          8.37541        -0.56137         1.17690
C          9.61868        -1.36555         1.18387
C         10.85890        -0.62532         1.10050
C         -9.76567        -2.96785         0.72867
C         -8.60600        -3.72898         0.56375
C         -7.29382        -3.07964         0.76976
C         -6.06610        -3.78489         0.28117
C         -4.79998        -2.98989         0.00123
C         -3.85939        -3.57458        -0.98469
C         -2.59258        -2.86220        -1.28932
C         -1.27609        -3.57008        -1.58811
C         -0.01833        -2.83462        -1.24072
C          1.13588        -3.57018        -0.79659
C          2.34283        -2.84190        -0.49426
C          3.45273        -3.45092         0.06324
C          4.70851        -2.75214         0.26729
C          5.81931        -3.46838         0.75881
C          7.03236        -2.74955         1.16982
C          8.31745        -3.48929         1.24637
C          9.55741        -2.74427         1.23873
C         -8.63616        -5.11607         0.23063
C         -7.49355        -5.81804        -0.17263
C         -6.24765        -5.10573        -0.35106
C         -5.23514        -5.64327        -1.13238
C         -4.17031        -4.77927        -1.55946
C         -2.31854        -5.87375        -1.97980
C         -1.05662        -5.06556        -1.91486
C         -0.02356        -5.73385        -1.04917
C          1.11282        -4.97713        -0.62843
C          2.20317        -5.64657         0.04135
C          3.27003        -4.80416         0.70753
C          4.56137        -5.55234         0.90710
C          5.77355        -4.88732         0.99327
C          7.02656        -5.60921         1.23092
C          8.27342        -4.86577         1.23225
C         -7.49941        -7.21840        -0.48788
C         -6.38489        -7.86229        -1.00297
C         -5.21158        -7.08336        -1.45111
C         -3.82369        -7.83673        -1.54544
C         -2.51038        -7.12892        -1.45135
C         -1.34830        -7.81489        -0.92822
C         -0.12582        -7.10511        -0.77582
C          1.14685        -7.86335        -0.49763
C          2.20854        -7.02738         0.18121
C          3.28787        -7.72445         0.81438
C          4.45418        -6.96547         1.27208
C          5.77362        -7.73717         1.53436
C          7.02047        -6.98364         1.36533
C         -6.30817        -9.29695        -1.08186
C         -5.10404        -9.94967        -1.12513
C         -3.84411        -9.25187        -1.12804
C         -2.68987        -9.87181        -0.67255
C         -1.43527        -9.19492        -0.54772
C         -0.30742        -9.84916         0.00369
C          0.94126        -9.21455         0.14218
C          2.05823        -9.84323         0.70316
C          3.27100        -9.13053         0.94298
C          4.50388        -9.83414         1.23649
C          5.69965        -9.20054         1.38289
O          3.40485        -1.44509        -2.13607
O          0.01072         1.99571        -2.88396
H         -0.41352         1.29127        -3.42564
O         -6.52049         3.09253         2.49419
O          4.07030         8.42065        -2.50185
H          4.00229         7.56404        -2.99094
O          2.49242         1.41804         0.59019
H          1.61490         1.80571         0.91960
O          8.27853         0.45520         2.23720
O          4.02780         5.67540        -2.63111
H          4.61144         4.98375        -3.02978
O          5.39965         3.20834         1.39059
H          4.92155         3.98577         1.76711
O         -3.72052         1.32567        -1.63427
O          4.82892         3.37053        -2.26184
O         -4.63512        -7.52246        -2.70678
O          1.69115        -8.17153        -1.83719
H          1.66401        -7.34358        -2.36430
O          1.55071         7.79170        -2.26922
O         -4.30034         1.77789         1.88028
O          0.15184         2.43845         0.74912
O         -1.68459        -0.01775        -2.49654
O         -5.11907         7.52878         1.99201
O         -1.86262        -1.82171         0.74692
H         -2.58602        -2.13540         1.33148
O         -0.48813        -5.05448        -3.26434
H         -1.06865        -4.46947        -3.80232
O          2.75707        -4.53574         2.06319
H          3.45320        -4.05094         2.55656
O         -2.88879         3.99565         1.76473
H         -2.78056         3.17993         2.30222
O         -4.19002         4.65297        -1.55276
H         -4.17506         5.49048        -2.06207
O          4.92552        -7.25458         2.62654
O          6.68220        -1.86232         2.30824
O          7.46075         5.78202        -1.64592
H          8.27629         6.27180        -1.88456
O         -3.37214        -5.23167        -2.62929
O         -7.11647        -2.45428         2.06673
O          5.02700         5.63956         1.02487
O         -2.05759        -2.90223        -2.63726
O         -4.94591        -3.75420         1.24022
O         -4.16674         8.52631        -1.33306
O          4.69441         0.97273        -2.21289
H         11.79560        -1.19322         1.20904
H         11.91684         1.20945         0.83233
H         10.71662         3.47595         0.51175
H          9.44142         5.61245         0.54064
H          8.10770         7.82082         0.56291
H          6.88859         9.97513         0.41764
H          4.76203        11.19339         0.21253
H          2.35309        11.11025         0.16304
H         -0.11509        11.12004         0.12210
H         -2.54967        11.11443         0.06537
H         -5.14876        11.09475         0.27738
H         -7.12728         9.85576         0.98752
H         -8.36074         7.52495         1.05678
H         -9.47593         5.39945         1.24275
H        -10.70879         3.25746         1.09986
H        -11.92759         1.11547         1.08846
H        -11.92584        -1.34955         0.95679
H        -10.74293        -3.46642         0.63989
H         -9.60620        -5.63538         0.23833
H         -8.39289        -7.80989        -0.23683
H         -7.23499        -9.87633        -0.95800
H         -5.08261       -11.04596        -1.03453
H         -2.74370       -10.92561        -0.35899
H         -0.42448       -10.88130         0.36900
H          1.99805       -10.90342         0.99407
H          4.47702       -10.93371         1.20305
H          6.63208        -9.78181         1.44072
H          7.97356        -7.53451         1.38236
H          9.21246        -5.43884         1.27821
H         10.49571        -3.32104         1.24481
