         344
 CSIRO Nanostructure Databank - Neutral Graphene Oxide Data Set
C          1.25033         2.08846         0.58233
C          1.24150         3.41737         0.03325
C          2.41655         1.42909         0.85741
C          2.39958         4.12966        -0.13779
C          1.32176         5.99806        -1.35757
C          1.36559         7.25575        -1.94219
C          2.46521         5.46652        -0.73112
C          2.50062         8.05811        -1.76411
C          1.30127        11.12624        -1.55980
C          1.28147        12.42280        -0.93672
C          2.44337        10.39341        -1.59660
C          2.37861        12.92420        -0.29298
C          1.23580        15.04406         0.34349
C          1.26682        16.43534         0.61756
C          2.39989        14.28414         0.23675
C          2.45489        17.09583         0.85690
C          2.52197        18.52344         0.98655
C          3.68979         2.06833         0.64569
C          3.69303         3.56196         0.39853
C          4.87946         1.40358         0.81764
C          4.82412         4.04725        -0.51506
C          3.66973         6.24320        -0.68593
C          3.64935         7.62453        -1.07062
C          4.92088         5.57650        -0.31764
C          4.80618         8.50005        -0.75050
C          3.76518        10.89222        -1.08546
C          3.57412        12.01728        -0.04312
C          4.80069         9.86829        -0.59697
C          4.87718        12.77405         0.10666
C          3.67301        14.89546         0.53045
C          3.70770        16.29345         1.10725
C          4.86190        14.19834         0.38700
C          4.97167        17.04529         0.76353
C          3.71700        19.18876         0.98708
C          4.97297        18.49235         0.80229
C          6.15351         2.03694         0.54080
C          6.07906         3.14537        -0.47837
C          7.33244         1.58094         1.07794
C          7.49323         4.51232         0.90325
C          6.07288         6.31526        -0.13897
C          6.11319         7.71383        -0.76088
C          7.35567         5.71818         0.17621
C          7.36652         8.45369        -0.39838
C          5.99941        10.56645        -0.00958
C          6.03803        12.05157         0.12203
C          7.31983         9.85617         0.02586
C          7.30853        12.68236         0.66732
C          6.14280        14.88577         0.51219
C          6.15042        16.34911         0.57314
C          7.31646        14.18372         0.50930
C          7.40034        17.05246         0.40639
C          6.14833        19.19131         0.58793
C          7.39054        18.51073         0.33402
C          8.61677         2.26446         0.92606
C          8.64919         3.69389         0.71596
C          9.80148         1.54789         0.85859
C          9.81968         4.28909         0.16420
C          8.56294         6.33405        -0.28933
C          8.56021         7.78196        -0.43204
C          9.77639         5.64780        -0.25344
C          9.83419         8.48274        -0.28211
C          8.60214        10.59717         0.08714
C          8.59981        11.99890         0.26091
C          9.81144         9.88749        -0.05017
C          9.83000        12.71756         0.19765
C          8.62050        14.89120         0.76999
C          8.60540        16.35737         0.39272
C          9.79478        14.22011         0.03674
C          9.83850        17.02697         0.08941
C          8.55650        19.19298         0.06754
C          9.77929        18.45781        -0.40311
C         11.04681         2.18224         0.52446
C         11.04100         3.55186         0.12683
C         12.26538         1.47425         0.55040
C         12.27296         4.21294        -0.23944
C         10.98763         6.32935        -0.82878
C         11.04270         7.78501        -0.41452
C         12.26492         5.58095        -0.57287
C         12.30793         8.47275        -0.36925
C         11.10367        10.58059         0.28763
C         11.05407        12.06362         0.05979
C         12.33079         9.88632        -0.23861
C         12.26552        12.79872        -0.23782
C         11.12926        14.89423         0.42481
C         11.05508        16.35862         0.04987
C         12.28469        14.16676        -0.21988
C         12.28791        17.06400        -0.18217
C         11.06953        19.19368        -0.17742
C         12.26271        18.52251        -0.14633
C         13.49410         2.09998         0.21376
C         13.49112         3.46041        -0.20646
C         14.72652         1.38579         0.37878
C         14.75965         4.09127        -0.60982
C         13.50892         6.32498        -0.83025
C         13.52755         7.77776        -0.58153
C         14.81957         5.57954        -0.79960
C         14.76408         8.45896        -0.51175
C         13.52981        10.59089        -0.40486
C         13.48213        12.06400        -0.76678
C         14.74808         9.87589        -0.43133
C         14.75582        12.83522        -0.49688
C         13.46591        14.92976        -0.76711
C         13.49235        16.38510        -0.35936
C         14.76805        14.19591        -0.53129
C         14.74734        17.09123        -0.35998
C         13.53237        19.21240        -0.15257
C         14.71916        18.54503        -0.26816
C         15.97834         1.99133         0.22933
C         16.04487         3.36812        -0.31522
C         17.19891         1.33201         0.47322
C         17.27171         4.16146        -0.07984
C         16.05277         6.31729        -0.43855
C         16.02612         7.72393        -0.42386
C         17.25187         5.59060        -0.13875
C         17.24965         8.44275        -0.18684
C         16.01267        10.60752        -0.24689
C         16.02799        12.10071        -0.25829
C         17.29052         9.87618        -0.26091
C         17.26908        12.81355        -0.77609
C         16.01746        14.95426        -0.41390
C         15.96420        16.39161        -0.38325
C         17.23842        14.27734        -0.35355
C         17.25527        17.15839        -0.55798
C         15.99968        19.35375        -0.34526
C         17.21419        18.53716         0.11536
C         18.44081         2.01642         0.37763
C         18.44926         3.46303         0.21951
C         19.66241         1.33674         0.49361
C         19.68278         4.17518         0.37065
C         18.44854         6.31385         0.17581
C         18.42419         7.73266         0.14532
C         19.67320         5.59770         0.41716
C         19.58454         8.49695         0.63561
C         18.48609        10.59808        -0.10461
C         18.61575        12.07105        -0.51151
C         19.65181         9.94625         0.36568
C         19.54333        12.79141         0.49049
C         18.46983        14.98721        -0.08540
C         18.48660        16.40212        -0.11920
C         19.65353        14.27263         0.22015
C         19.68937        17.09842         0.10781
C         18.51046        19.26340        -0.09873
C         19.72099        18.57853         0.05200
C         20.90840         2.02619         0.47476
C         20.90906         3.46479         0.46887
C         22.13614         1.33964         0.47679
C         22.14663         4.17474         0.54427
C         20.90427         6.28668         0.63730
C         20.86282         7.72708         0.94204
C         22.13317         5.61156         0.63903
C         22.15838         8.47048         1.02081
C         20.86160        10.67469         0.58408
C         20.88625        12.07505         0.49881
C         22.13053         9.97475         0.88946
C         22.12540        12.79159         0.48195
C         20.87877        14.96120         0.36383
C         20.88137        16.37696         0.31027
C         22.13549        14.22304         0.43041
C         22.17971        17.13711         0.22692
C         20.92523        19.27121         0.25469
C         22.10106        18.54656         0.85094
C         23.37156         2.03914         0.48037
C         23.36368         3.46623         0.55379
C         24.61120         1.35097         0.38819
C         24.65753         4.18467         0.82424
C         23.39530         6.34343         0.63363
C         23.40487         7.76349         0.68617
C         24.61699         5.65613         0.52701
C         24.61209         8.49625         0.54337
C         23.40016        10.66351         0.59250
C         23.36521        12.08726         0.46764
C         24.59310         9.93854         0.57210
C         24.60281        12.79013         0.23192
C         23.36919        14.91162         0.35583
C         23.39380        16.36941         0.73705
C         24.58311        14.23251         0.16559
C         24.64431        17.11611         0.35288
C         23.40729        19.25341         0.61549
C         24.61475        18.55813         0.40381
C         25.83424         2.05573         0.19325
C         25.85380         3.47903         0.25543
C         27.04405         1.36559        -0.06912
C         27.02336         4.20612        -0.06985
C         25.82942         6.36358         0.26376
C         25.82770         7.79924         0.27300
C         27.01335         5.64179        -0.05642
C         27.06897         8.52896         0.08709
C         25.88805        10.68828         0.71298
C         25.80306        12.09051         0.17613
C         27.11792         9.94783         0.25533
C         27.04830        12.75230        -0.33030
C         25.82626        14.95435        -0.01037
C         25.82271        16.42322         0.04350
C         27.00339        14.25443        -0.20752
C         27.02562        17.15266        -0.15128
C         25.84793        19.25741         0.28061
C         27.06038        18.56966         0.05355
C         28.23277         2.06729        -0.33084
C         28.20789         3.48225        -0.41762
C         29.49992         1.35207        -0.35872
C         29.43640         4.21009        -0.76222
C         28.17447         6.39736        -0.65404
C         28.25450         7.83731        -0.21788
C         29.48713         5.66541        -0.55866
C         29.49676         8.52325        -0.28782
C         28.31181        10.64791         0.09853
C         28.32032        12.15103         0.30569
C         29.52712         9.94914        -0.16476
C         29.56817        12.83980        -0.21393
C         28.24832        14.93479        -0.56796
C         28.25089        16.46947        -0.56248
C         29.54588        14.23201        -0.44582
C         29.54136        17.15306        -0.44186
C         28.30803        19.24981        -0.01880
C         29.53446        18.56264        -0.21091
C         30.69286         1.98810        -0.43327
C         30.76444         3.42814        -0.73296
C         31.96034         4.21046        -0.40472
C         30.69547         6.32889        -0.50136
C         30.72403         7.79448        -0.44870
C         31.92606         5.56707        -0.36650
C         31.91864         8.51019        -0.53048
C         30.76676        10.65405        -0.30276
C         30.77338        12.12065        -0.35241
C         31.93738         9.91139        -0.47701
C         31.95166        12.84366        -0.64576
C         30.74620        14.96304        -0.64442
C         30.75002        16.43551        -0.60619
C         31.94718        14.22768        -0.73599
C         31.95589        17.16856        -0.59473
C         30.77682        19.25435        -0.20349
C         31.95855        18.55805        -0.41011
O         28.12256        15.69712        -1.81610
O          6.82296         3.15452        -1.45164
O         30.11123         3.77961        -1.99375
O         19.94680         8.08469         2.01237
O         14.22819         5.97118        -2.07890
O          6.47501         9.95941         1.26931
O         16.02804        11.45129         1.02825
O          2.47136         9.28057        -2.44278
O         15.50515         3.41284        -1.68659
O         22.21946         9.32063         2.21226
O         21.84694        18.49806         2.28618
H         22.40172        17.77497         2.66564
O         23.36302        16.33869         2.20688
H         24.17342        15.87827         2.51182
O          6.28425         7.41638        -2.19691
H          5.55727         6.81322        -2.46500
O          4.39630        11.50288        -2.25137
H          4.37526        10.84619        -2.98014
O         26.08216        10.83870         2.19677
H         25.21344        11.09477         2.57748
O         17.40489        17.39023        -2.00212
H         17.45574        16.51258        -2.43767
O          9.62955        18.36702        -1.87906
H          8.88024        17.75660        -2.05025
O          3.75163        16.09662         2.57310
H          3.78791        16.98881         2.97959
O         13.34185        12.05855        -2.22743
H         13.32424        13.00653        -2.51368
O         17.07533        18.27694         1.54013
H         17.43052        19.04405         2.03484
O         10.83095         6.34837        -2.29585
H         10.84341         5.41931        -2.60993
O         28.29199        12.42653         1.72839
H         27.57875        11.86410         2.12892
O         24.83521         4.10325         2.30582
H         24.84192         3.14907         2.53649
O          8.79737        14.80401         2.22068
H          8.33736        13.98374         2.52706
O         18.93737        12.63394         1.79550
H         19.52832        13.03609         2.46483
O          7.24884        12.44878         2.13657
H          6.98808        11.49511         2.23970
O         27.86717         6.44890        -2.10659
H         28.68573         6.73214        -2.56773
O         22.42606        17.32693        -1.19463
H         21.69773        17.87876        -1.55273
O         13.26503        14.92450        -2.23977
H         13.98187        15.46729        -2.63347
O         19.32916        12.05922        -1.77958
H         20.23159        11.70819        -1.61727
O         11.23492        10.41609         1.76289
H         10.51601        10.94089         2.17683
O         27.16833        12.46828        -1.76477
H         26.49896        13.00642        -2.23767
O         16.20256        19.83143        -1.68193
H         16.52999        19.07192        -2.21764
O          6.58816         4.15811         1.84505
H          5.79004         4.73579         1.83351
O         11.38412        14.79583         1.84645
H         10.53460        14.98798         2.31925
O          9.55968        14.47684        -1.37169
H         10.32959        14.13352        -1.87396
O          3.91259         4.19534         1.70357
H          3.18697         3.90741         2.29747
O          3.31471        11.34138         1.21848
H          3.26142        12.02300         1.92105
O          4.36926         3.88115        -1.88244
H          5.17892         3.76698        -2.43328
O         17.03254        12.84441        -2.21144
H         17.90770        12.75738        -2.65545
H          0.28728         1.57819         0.72368
H          0.27080         3.83040        -0.27510
H          2.40083         0.38285         1.19627
H          0.40564         5.39938        -1.44184
H          0.51327         7.64729        -2.51143
H          0.40454        10.76502        -2.07990
H          0.37532        13.03079        -1.06452
H          0.25991        14.58478         0.13470
H          0.32840        17.00727         0.55776
H          1.57862        19.08953         1.02628
H          4.87730         0.36491         1.18644
H          3.73689        20.28661         1.04950
H          7.31157         0.65795         1.68165
H          6.13552        20.29151         0.57302
H          9.78902         0.45750         1.00415
H          8.55283        20.29293         0.02750
H         12.27209         0.42213         0.87129
H         11.05684        20.29440        -0.19168
H         14.67786         0.34093         0.72076
H         13.52871        20.31202        -0.10303
H         17.19472         0.26596         0.74541
H         15.89644        20.25791         0.31170
H         19.66193         0.24009         0.58209
H         18.50930        20.36341        -0.14854
H         22.14238         0.23985         0.45426
H         20.92253        20.37216         0.23162
H         24.61348         0.25253         0.33779
H         23.43777        20.35065         0.70318
H         27.05574         0.26593        -0.04250
H         25.85781        20.35269         0.37744
H         29.46845         0.26611        -0.18353
H         28.32545        20.34186         0.11086
H         31.63307         1.43239        -0.29877
H         32.88684         3.67238        -0.15366
H         32.85245         6.10854        -0.13039
H         32.87342         7.98453        -0.66444
H         32.90764        10.41588        -0.57495
H         32.90646        12.31725        -0.77666
H         32.90109        14.74267        -0.91098
H         32.91908        16.65745        -0.72253
H         30.78995        20.34042        -0.03504
H         32.91656        19.09684        -0.41065
