         349
 CSIRO Nanostructure Databank - Neutral Graphene Oxide Data Set
C          1.49856         2.43851        -2.29660
C          1.43793         3.78334        -1.88594
C          2.62492         1.67769        -2.04054
C          2.51431         4.37805        -1.22355
C          1.42266         6.70530        -1.08369
C          1.42706         8.02506        -0.62106
C          2.38687         5.72668        -0.60971
C          2.37864         8.53696         0.25178
C          1.10349        10.73511         0.36852
C          1.13031        12.05929         0.12135
C          2.35969         9.97347         0.72557
C          2.36516        12.83822         0.18688
C          1.17842        15.04211         0.06051
C          1.19072        16.47064        -0.01081
C          2.33034        14.28618         0.19735
C          2.37280        17.18013        -0.13600
C          2.46337        18.59778        -0.31945
C          3.75664         2.25796        -1.40471
C          3.69980         3.62631        -0.98821
C          4.93773         1.50110        -1.19677
C          4.88458         4.24712        -0.45096
C          3.59732         6.29666         0.15058
C          3.59354         7.73568         0.66348
C          4.87900         5.60414        -0.02647
C          4.89883         8.47639         0.42385
C          3.58781        10.65626         0.05665
C          3.58277        12.16174         0.27261
C          4.88360         9.93081         0.40008
C          4.82783        12.88300         0.37059
C          3.60656        15.04629         0.50376
C          3.62821        16.39281        -0.18276
C          4.88430        14.26699         0.32079
C          4.93187        17.11453        -0.28778
C          3.66802        19.26024        -0.40433
C          4.93639        18.59035        -0.31625
C          6.12058         2.10834        -0.74274
C          6.11014         3.52338        -0.44540
C          7.32258         1.36531        -0.59228
C          7.32563         4.19770        -0.16647
C          6.10038         6.29877         0.19914
C          6.07842         7.74828         0.41834
C          7.31916         5.58888         0.11959
C          7.36865         8.45013         0.58324
C          6.05652        10.64202         0.46551
C          6.06525        12.11384         0.59088
C          7.35687         9.96066         0.62305
C          7.38786        12.84657         0.56548
C          6.14522        14.99191         0.26682
C          6.17304        16.40121         0.06777
C          7.37862        14.30250         0.30998
C          7.38469        17.11843         0.10230
C          6.14524        19.25990        -0.23764
C          7.39655        18.57068        -0.08411
C          8.54737         2.00434        -0.32140
C          8.56704         3.44404        -0.20875
C          9.77596         1.29329        -0.25605
C          9.79114         4.11002        -0.20058
C          8.65623         6.24408         0.43888
C          8.64191         7.74795         0.26103
C          9.75513         5.59396        -0.43432
C          9.77301         8.44333        -0.00982
C          8.57458        10.70451         0.20392
C          8.59081        12.06639         0.18803
C          9.73104         9.91414        -0.38573
C          9.79136        12.85359        -0.19802
C          8.60494        15.01307         0.23975
C          8.60265        16.42111         0.24634
C          9.86047        14.29484         0.10438
C          9.87563        17.17282         0.52809
C          8.61148        19.24647        -0.16141
C          9.87406        18.59073        -0.00379
C         11.01004         1.96124        -0.13355
C         11.02458         3.40746        -0.13951
C         12.24652         1.26633        -0.04965
C         12.24978         4.11541        -0.04479
C         11.07272         6.26539        -0.19956
C         11.04729         7.74226        -0.44277
C         12.24000         5.56200        -0.03892
C         12.34529         8.43012        -0.10407
C         11.03038        10.63303        -0.01682
C         11.09917        12.09423        -0.29501
C         12.34386         9.89494         0.01370
C         12.34812        12.80523        -0.01094
C         11.08166        14.95951         0.06591
C         11.12965        16.40979         0.16557
C         12.34184        14.22030         0.02079
C         12.30924        17.10006         0.04204
C         11.08096        19.24454        -0.16693
C         12.34591        18.55793        -0.02995
C         13.47610         1.94578         0.03560
C         13.49196         3.40074         0.04148
C         14.70122         1.23072         0.11915
C         14.72382         4.08280         0.09907
C         13.49749         6.29589         0.37181
C         13.51362         7.73673        -0.09323
C         14.78064         5.53166         0.13634
C         14.80272         8.41848        -0.36126
C         13.57615        10.65308        -0.07443
C         13.57422        12.06511         0.07275
C         14.83633         9.95105        -0.50720
C         14.79611        12.77545         0.24369
C         13.56638        14.91302         0.11842
C         13.61418        16.38421        -0.19834
C         14.79514        14.19868         0.28550
C         14.75243        17.11623         0.48664
C         13.55918        19.23724        -0.03687
C         14.82027        18.58618         0.24855
C         15.94576         1.87991         0.22465
C         15.96135         3.34258         0.20206
C         17.17002         1.16369         0.25287
C         17.15927         4.01674         0.33701
C         15.98064         6.19835         0.16054
C         16.06364         7.65802        -0.10177
C         17.27596         5.46531        -0.04566
C         17.35629         8.35693         0.10994
C         16.05462        10.53923         0.19662
C         16.03869        12.01073         0.47967
C         17.37357         9.84062        -0.01173
C         17.32025        12.72903         0.54155
C         16.01167        14.90727         0.47296
C         16.01970        16.35005         0.72332
C         17.28389        14.19021         0.41634
C         17.29486        17.08795         0.84066
C         16.01270        19.24070         0.39196
C         17.25691        18.60162         0.98988
C         18.41385         1.81137         0.46613
C         18.35028         3.26511         0.74346
C         19.65959         1.17211         0.47686
C         19.62555         4.02754         0.96955
C         18.49481         6.20708         0.48304
C         18.50863         7.65853         0.36166
C         19.64030         5.51025         0.82404
C         19.85937         8.37095         0.35411
C         18.62448        10.60761         0.32226
C         18.53571        12.05784         0.64640
C         19.84533         9.85913         0.66018
C         19.74544        12.74755         0.95068
C         18.55555        14.96069         0.65658
C         18.47353        16.41713         0.95099
C         19.77364        14.19229         1.01258
C         19.74849        17.17162         1.07162
C         18.54606        19.22658         0.48926
C         19.74649        18.55928         0.53561
C         20.90249         1.88100         0.66325
C         20.87578         3.27250         0.88336
C         22.17404         1.22690         0.51037
C         22.10211         4.01350         1.14785
C         20.88758         6.19287         1.06950
C         20.81350         7.68693         1.31993
C         22.06797         5.48397         1.13767
C         22.16158         8.39363         1.39135
C         21.01049        10.52257         1.00384
C         20.97464        11.99905         1.07616
C         22.25489         9.78614         1.28199
C         22.16518        12.68260         1.15883
C         20.94639        14.89523         1.16980
C         21.03552        16.38305         1.08871
C         22.25289        14.17351         1.27284
C         22.14758        16.95852         0.27797
C         21.01476        19.13979         0.17682
C         22.20842        18.40932         0.03277
C         23.41225         1.90048         0.57902
C         23.43768         3.31235         1.03203
C         24.65063         1.30228         0.28259
C         24.63184         4.14345         0.75122
C         23.33196         6.17500         1.24647
C         23.26938         7.53432         1.60749
C         24.56598         5.55282         0.88372
C         25.09543         8.60951         1.05189
C         23.58496        10.59663         1.46391
C         23.39451        11.92898         0.74289
C         24.85457         9.98620         0.85396
C         24.63790        12.78685         0.67904
C         23.18002        14.70789         0.17725
C         22.89424        16.00816        -0.41614
C         24.44313        14.15762         0.18604
C         25.20674        17.38623        -0.64619
C         23.42107        19.17236        -0.19260
C         24.77082        18.78752        -0.35154
C         25.88539         2.03643         0.31395
C         25.84051         3.48631         0.43352
C         27.11136         1.38198         0.16025
C         27.04691         4.26378         0.29391
C         25.66061         6.30653         0.11617
C         25.79377         7.81036         0.18379
C         27.01093         5.63915         0.25247
C         26.85157         8.47147        -0.66944
C         25.84217        10.66751         0.08469
C         25.88846        12.14219         0.17866
C         26.85233         9.98601        -0.59076
C         26.71007        12.95387        -0.82544
C         25.64369        14.96636         0.01635
C         25.27417        16.35619         0.47453
C         26.83145        14.40250        -0.35410
C         27.41951        17.64352         0.18545
C         25.91521        19.61906        -0.42656
C         27.21124        18.98603        -0.47936
C         28.39275         2.08135         0.27081
C         28.35930         3.58757         0.34362
C         29.67630         1.47010        -0.13118
C         29.51489         4.34532        -0.27915
C         28.24592         6.44902         0.27181
C         28.19698         7.96346        -0.11378
C         29.53442         5.80884         0.08472
C         29.43321         8.62955        -0.52185
C         28.02051        10.71213        -1.17277
C         28.02007        12.23349        -1.21043
C         29.30412         9.86936        -1.39832
C         29.30729        12.98837        -1.09853
C         28.09670        15.13467        -0.66039
C         28.25314        16.62960        -0.58051
C         29.34694        14.31631        -0.77909
C         29.59157        17.27002        -0.76903
C         28.39842        19.48174        -0.99286
C         29.60856        18.66882        -1.04147
C         30.82603         2.21329        -0.20329
C         30.83210         3.64494        -0.11257
C         31.99243         4.42532        -0.07875
C         30.71702         6.55325        -0.06018
C         30.65158         7.99002        -0.35300
C         31.95001         5.82515        -0.10866
C         31.86520         8.71888        -0.70914
C         30.58244        10.71327        -1.45752
C         30.57054        12.23297        -1.35932
C         31.84267         9.97654        -1.19839
C         31.83249        12.94722        -1.05191
C         30.63162        15.02516        -0.34016
C         30.74354        16.47246        -0.82896
C         31.86351        14.21063        -0.61485
C         31.95863        17.08838        -1.17357
C         30.84596        19.24151        -1.40544
C         31.99432        18.45535        -1.47351
O         30.61140        11.54287        -2.66175
O         25.78483        12.61012         1.55781
O         28.18726         7.54339         1.26390
O         18.14411        14.67327        -0.72414
O          2.54718         5.57398         0.86410
O          7.47514         9.18117         1.86560
O         27.84643        16.02307        -1.84163
O         15.53804         7.83799        -1.51770
O         25.59164        17.08326        -1.76801
O          4.28685        16.46906        -1.47589
O         27.79841        11.46838        -2.44249
O         24.43524         8.05054         2.15939
O         28.58730         2.85794         1.56344
O         24.84562        16.56813         1.59591
O         20.54618        17.05286         2.29504
O         11.03872         7.79959        -1.89083
O         15.04435        16.72291         1.84699
O         10.39143        12.52192        -1.49673
O         18.19689        10.35027        -1.10574
O         11.55633        10.29409         1.27247
O          6.76746        12.49880         1.84321
O         15.85814        10.96510         1.56494
O         18.78272         3.60563         2.12339
O         27.27454        17.50886         1.39225
O         22.83637         3.50914         2.34606
O          3.54355         7.59719         2.13217
H          2.91287         6.85972         2.30998
O          9.90642        17.30637         1.99490
H         10.73118        17.78387         2.22811
O         13.41941         6.40682         1.84132
H         13.25524         5.51004         2.20306
O          9.38121         5.77135        -1.82363
H          9.94515         6.53033        -2.16954
O         25.86926        13.01995        -2.00909
H         26.25466        12.38553        -2.66371
O         29.20760         4.30843        -1.72850
H         29.95882         4.72905        -2.19907
O         14.97840        10.27482        -1.91317
H         15.32611         9.46616        -2.36201
O         23.15537        11.53753        -0.64931
H         23.08208        12.34882        -1.19579
O          3.39160        10.45049        -1.37512
H          4.05346        10.98810        -1.85853
O         26.77798         8.04578        -2.05510
H         27.54841         8.45701        -2.53446
O         29.13962         9.30502        -2.73879
H         29.16349        10.07888        -3.35142
O         30.53067        15.11122         1.11659
H         29.88433        15.81156         1.34919
O         23.76182        10.82230         2.86693
H         24.08347         9.98677         3.26856
O         17.16166        18.87335         2.42564
H         16.40528        18.34144         2.76159
O          3.55517        15.36227         1.93705
H          3.57815        14.51574         2.43235
O         17.47590         5.44254        -1.51508
H         16.97896         6.19967        -1.89928
O          2.49666        10.04950         2.15570
H          2.98446         9.24232         2.46302
O         22.88899        14.50300         2.53434
H         23.33842        15.37582         2.45704
O         20.37473         8.23842        -0.99193
H         19.81746         8.80366        -1.57287
O         13.91779        16.48447        -1.62817
H         13.19712        16.04103        -2.12367
O          8.97056         5.95159         1.82424
H          8.43081         6.54268         2.39104
O          9.55630         9.94702        -1.81547
H         10.11352         9.18667        -2.17517
O         20.20305         7.83933         2.63260
H         20.70756         7.30071         3.27754
O         23.30180        16.25563        -1.68042
H         23.92155        15.56895        -2.00414
O         25.24015         6.01249        -1.26759
H         25.76768         6.60295        -1.86510
H          0.63211         1.98953        -2.80136
H          0.51573         4.35496        -2.06063
H          2.66567         0.62290        -2.34768
H          0.73276         6.42722        -1.89236
H          0.63903         8.69630        -0.99412
H          0.13613        10.21332         0.42386
H          0.18583        12.58897        -0.06839
H          0.19997        14.54714        -0.02111
H          0.22841        17.00303        -0.03667
H          1.52861        19.17740        -0.35726
H          4.94469         0.43420        -1.46564
H          3.67162        20.35627        -0.50218
H          7.30068         0.27675        -0.75315
H          6.15898        20.35938        -0.29561
H          9.76207         0.19503        -0.32749
H          8.60840        20.32487        -0.38549
H         12.24235         0.16584        -0.04884
H         11.09213        20.31501        -0.42478
H         14.67014         0.13054         0.10979
H         13.55780        20.33200        -0.15305
H         17.14819         0.07080         0.12416
H         16.04117        20.33351         0.25385
H         19.70209         0.08532         0.30864
H         18.51155        20.26765         0.13226
H         22.17496         0.15906         0.24309
H         21.03848        20.22395        -0.01583
H         24.68667         0.22806         0.04509
H         23.25883        20.26488        -0.16584
H         27.12088         0.30113        -0.04956
H         25.82905        20.71500        -0.49536
H         29.71602         0.37961        -0.27097
H         28.44624        20.50157        -1.40507
H         31.78765         1.70147        -0.36479
H         32.97240         3.92627        -0.04055
H         32.90423         6.36696        -0.13440
H         32.83845         8.23250        -0.56163
H         32.79071        10.47129        -1.44931
H         32.77862        12.41857        -1.23223
H         32.83398        14.66948        -0.37680
H         32.88884        16.50700        -1.22301
H         30.89993        20.31503        -1.63551
H         32.95060        18.91685        -1.75682
