         410
 CSIRO Nanostructure Databank - Neutral Graphene Oxide Data Set
C         27.93115        27.36099        -0.72699
C         27.92549        28.69221        -1.17071
C         26.71883        29.42951        -1.41760
C         27.90303        31.61487        -1.65546
C         26.69108        30.77358        -1.66185
C         27.84311        33.09828        -1.37163
C         26.58877        33.84107        -1.10649
C         27.85262        35.96236        -0.99669
C         26.62473        35.18478        -0.93093
C         27.83265        37.36368        -1.07375
C         26.64009        38.14446        -0.98455
C         27.84883        40.29908        -0.78443
C         26.65508        39.51285        -0.83386
C         27.83498        41.64498        -0.39247
C         26.66328        42.31192         0.09757
C         27.88874        44.40530         0.49503
C         26.67677        43.63021         0.47537
C         27.90533        45.75575         0.90974
C         30.39521        27.31501        -0.52420
C         29.11898        26.67802        -0.46589
C         30.44567        28.70249        -0.88211
C         29.22049        29.34950        -1.36733
C         30.41456        31.57221        -1.04638
C         29.21933        30.89236        -1.52507
C         30.32379        32.98010        -0.59883
C         29.05718        33.76449        -0.77704
C         30.32830        35.91508        -0.88694
C         29.11679        35.25168        -0.89241
C         30.38887        37.35287        -1.25003
C         29.09014        38.10475        -1.32797
C         30.41687        40.27424        -0.85786
C         29.11671        39.62757        -1.17909
C         30.41733        41.74003        -0.71035
C         29.06649        42.45537        -0.49967
C         30.33461        44.47767         0.24985
C         29.10439        43.79503         0.09673
C         30.32745        45.85936         0.62098
C         29.09402        46.47495         0.92439
C         32.79462        24.55332         0.30973
C         31.66202        25.19652        -0.06222
C         32.84795        27.35705        -0.17408
C         31.60941        26.63339        -0.21374
C         32.87144        28.74125        -0.52473
C         31.64870        29.42802        -0.85898
C         32.85218        31.62405        -0.75179
C         31.61985        30.88074        -0.91608
C         32.87917        32.99952        -0.60818
C         31.60725        33.72812        -0.38634
C         32.88734        35.94497        -0.63336
C         31.59058        35.23454        -0.52274
C         32.90275        37.35292        -0.67763
C         31.67653        38.11788        -1.03920
C         32.84146        40.28700        -0.44042
C         31.61648        39.58539        -0.77104
C         32.84743        41.65362        -0.13580
C         31.62130        42.42117        -0.20243
C         32.76848        44.39993         0.84925
C         31.58102        43.75660         0.16934
C         32.80466        45.90452         0.72542
C         31.58096        46.59419         0.67861
C         32.72462        48.73167         0.95002
C         31.58534        48.03327         0.70027
C         35.32160        23.19149         0.98370
C         35.30786        24.56930         0.74337
C         33.99493        25.32175         0.79938
C         35.29085        27.37825         0.13860
C         34.06231        26.69555         0.17764
C         35.29144        28.76971        -0.17875
C         34.10695        29.43995        -0.49507
C         35.36564        31.62509        -0.63251
C         34.12370        30.86433        -1.00872
C         35.34599        33.07323        -0.63705
C         34.11559        33.75520        -0.59337
C         35.32322        35.91027        -0.36721
C         34.09651        35.20220        -0.52169
C         35.29772        37.32732        -0.31239
C         34.11139        38.05303        -0.51403
C         35.33800        40.19768        -0.05303
C         34.14193        39.55833        -0.71269
C         35.27532        41.58192         0.41648
C         34.06276        42.37087         0.23085
C         35.31084        44.47105         0.73980
C         34.08262        43.72567         0.55730
C         35.28943        45.90728         0.88372
C         34.03799        46.58958         0.91209
C         35.34021        48.82657         1.15645
C         33.99120        48.03569         1.18212
C         35.33922        50.26094         0.84357
C         37.75701        23.13542         0.93753
C         36.51616        22.48195         1.05810
C         37.77421        24.54484         0.71789
C         36.53908        25.26275         0.60205
C         37.79276        27.35670         0.22367
C         36.55587        26.68299         0.35892
C         37.83294        28.76880        -0.04576
C         36.54673        29.54612         0.10654
C         37.81250        31.63165        -0.67598
C         36.53578        30.93302        -0.47549
C         37.82599        33.09123        -0.53197
C         36.58928        33.78189        -0.49509
C         37.82065        35.85404        -0.14949
C         36.58218        35.19454        -0.31623
C         37.82434        37.28364         0.18022
C         36.52802        38.04128         0.06253
C         37.78909        40.23243         0.11068
C         36.51347        39.51285         0.03306
C         37.83743        41.63657         0.40660
C         36.61084        42.34403         0.70232
C         37.77907        44.53300         0.59360
C         36.56773        43.81388         0.66061
C         37.77706        45.94667         0.70653
C         36.53622        46.64576         0.86981
C         37.77393        48.78128         0.61858
C         36.56510        48.06913         0.87076
C         37.76244        50.23360         0.46987
C         36.47989        50.90118         0.48822
C         40.23287        20.31973         1.37726
C         39.03779        20.99814         1.22532
C         40.23148        23.12473         1.08581
C         39.00518        22.40712         1.07410
C         40.24894        24.54920         0.85381
C         39.02905        25.24170         0.63545
C         40.27952        27.33392         0.24016
C         39.04234        26.64858         0.35698
C         40.29726        28.74998        -0.03429
C         39.04088        29.43238        -0.18373
C         40.34323        31.61870        -0.37580
C         39.09248        30.86241        -0.56515
C         40.31872        33.03731        -0.38930
C         39.06262        33.75732        -0.41913
C         40.30716        35.87169        -0.10672
C         39.05889        35.16969        -0.22739
C         40.31248        37.28637         0.13095
C         39.10638        37.99297         0.19059
C         40.27820        40.16796         0.67037
C         39.10791        39.44939         0.11002
C         40.33670        41.61541         0.60917
C         39.11370        42.34059         0.24800
C         40.31296        44.58381         0.64781
C         39.06744        43.85493         0.36133
C         40.28972        45.95931         0.58747
C         39.01415        46.66435         0.57965
C         40.25632        48.79085         0.12485
C         38.99362        48.06371         0.52234
C         40.25579        50.22603         0.64331
C         38.95824        50.95799         0.36404
C         40.21662        53.08443         0.24368
C         39.02704        52.38221         0.26184
C         42.71817        20.30955         1.48639
C         41.45890        21.02441         1.44188
C         42.69293        23.18615         1.50352
C         41.44455        22.42865         1.32697
C         42.73423        24.59212         1.06826
C         41.49846        25.25136         0.79720
C         42.76465        27.30855         0.34168
C         41.51482        26.63576         0.45698
C         42.76614        28.70253        -0.13411
C         41.50620        29.46285        -0.14025
C         42.78890        31.63437        -0.18552
C         41.55022        30.90150        -0.24450
C         42.78613        33.06089        -0.25587
C         41.54218        33.75865        -0.32037
C         42.76730        35.92663        -0.35523
C         41.53965        35.19157        -0.25317
C         42.74643        37.33376        -0.23930
C         41.56445        37.98750         0.14894
C         42.87176        40.10003         0.78850
C         41.58390        39.34246         0.69321
C         42.84935        41.57262         1.07804
C         41.53576        42.32855         1.09114
C         42.82564        44.60050         0.88201
C         41.54896        43.85163         1.00772
C         42.81652        45.96783         0.72229
C         41.54860        46.70650         0.63232
C         42.79726        48.85043         0.83132
C         41.53785        48.06973         0.51666
C         42.80350        50.24035         0.22989
C         41.48773        50.96300         0.14435
C         42.70853        53.09965         0.19664
C         41.49043        52.43363         0.20829
C         43.91570        20.94443         1.46909
C         45.25390        23.14357         1.27830
C         44.00693        22.40944         1.59775
C         45.22994        24.54834         1.10702
C         43.96795        25.26480         0.97722
C         45.23158        27.39738         0.68592
C         43.98231        26.65452         0.62547
C         45.24425        28.76766         0.45178
C         44.07453        29.47040        -0.08662
C         45.22183        31.67333         0.05409
C         44.03412        30.95346        -0.04463
C         45.23475        33.08856        -0.10983
C         44.01917        33.79556        -0.27165
C         45.23880        35.91952        -0.72392
C         44.03505        35.23175        -0.46567
C         45.19246        37.42732        -1.11213
C         43.95765        38.14322        -0.53580
C         45.30431        40.29162         0.10114
C         44.02320        39.54991         0.00206
C         45.33861        41.64808         0.43490
C         44.12962        42.35529         0.92831
C         45.34741        44.57051         0.51918
C         44.11317        43.86459         0.92813
C         45.32233        45.98426         0.46414
C         44.07537        46.70675         0.57918
C         45.30396        48.85012         0.45472
C         44.07854        48.09751         0.54213
C         45.29316        50.28833         0.44167
C         44.04260        51.02923         0.34411
C         43.95120        52.41021         0.25447
C         47.67324        23.13158         1.02688
C         46.48313        22.45534         1.22075
C         47.69632        24.54199         0.91529
C         46.46657        25.25506         0.96919
C         47.71015        27.38456         0.97417
C         46.48401        26.69561         0.92299
C         47.71143        28.85175         1.11423
C         46.42141        29.57734         0.78667
C         47.70463        31.77201         0.50502
C         46.52751        30.91795         0.07887
C         47.72625        33.14438        -0.04307
C         46.48095        33.79335        -0.24544
C         47.70992        35.62794        -1.15377
C         46.45374        35.14391        -0.71395
C         47.67568        37.77542        -1.23076
C         46.45314        38.26197        -0.79101
C         47.74246        40.27729        -0.15160
C         46.49007        39.59138        -0.26180
C         47.76990        41.68871         0.10681
C         46.56303        42.38830         0.33339
C         47.77444        44.55796         0.19434
C         46.55288        43.84017         0.37308
C         47.75498        45.97009         0.24496
C         46.55086        46.70350         0.36641
C         47.77173        48.88893         0.39447
C         46.55067        48.15243         0.40620
C         47.73193        50.28680         0.41879
C         46.51910        50.97196         0.43885
C         50.14922        24.57309         0.44715
C         48.93769        25.25828         0.71574
C         50.19226        27.37054         0.59054
C         48.95666        26.68089         0.78402
C         50.26747        28.83706         0.77119
C         49.01673        29.60211         1.04722
C         50.26301        31.75708         0.37821
C         49.01018        31.08952         0.80424
C         50.22356        33.12817        -0.00359
C         48.96303        33.81132        -0.18137
C         50.17670        35.90894        -0.85300
C         48.96083        35.13650        -0.73137
C         50.15924        37.40068        -1.05131
C         48.93673        38.24894        -0.80795
C         50.23957        40.24433        -0.04748
C         48.96194        39.55996        -0.32985
C         50.25779        41.71932        -0.08447
C         49.02592        42.41160         0.03325
C         50.25470        44.51115        -0.16213
C         49.02683        43.83215         0.04270
C         50.22137        45.97920        -0.31863
C         49.04652        46.68786         0.27241
C         50.33952        48.87280         0.01479
C         49.07726        48.17850         0.38902
C         51.32469        25.25323         0.21240
C         52.61359        27.39868         0.01793
C         51.37610        26.67276         0.26825
C         52.63701        28.81745         0.09565
C         51.47059        29.57344         0.33185
C         52.67284        31.70278        -0.13453
C         51.46285        31.00469         0.22685
C         52.66028        33.11269        -0.34034
C         51.42424        33.83017        -0.33315
C         52.67666        35.95371        -0.67796
C         51.40234        35.24547        -0.63405
C         52.72078        37.35328        -0.71445
C         51.46911        38.11354        -0.87345
C         52.75193        40.26748        -0.52236
C         51.50599        39.50524        -0.32508
C         52.73011        41.66910        -0.45254
C         51.48394        42.39845        -0.26546
C         52.72234        44.55566        -0.51600
C         51.47684        43.82551        -0.32817
C         52.75468        45.97026        -0.57402
C         51.48615        46.74316        -0.56486
C         51.46138        48.21081        -0.31936
C         54.93650        27.33166        -0.81828
C         53.76769        26.70667        -0.48582
C         55.16136        28.73787        -0.48969
C         53.91243        29.53773        -0.03214
C         55.09522        31.63700        -0.62763
C         53.89908        30.98547        -0.26915
C         55.11469        33.07432        -0.68361
C         53.90006        33.80086        -0.56854
C         55.15017        35.92734        -0.75219
C         53.91402        35.22848        -0.65413
C         55.17155        37.36886        -0.76416
C         53.94818        38.08416        -0.70637
C         55.18899        40.23997        -0.77757
C         53.95968        39.53239        -0.69506
C         55.18454        41.68091        -0.75249
C         53.95982        42.39013        -0.60561
C         55.18136        44.52839        -0.73093
C         53.94897        43.82503        -0.60869
C         55.18331        45.94248        -0.73942
C         53.99295        46.64276        -0.66478
C         56.23268        29.50785        -1.12510
C         56.23381        30.86641        -1.07814
C         56.33425        33.79470        -0.82471
C         56.35289        35.16885        -0.83224
C         56.38797        38.11003        -0.84603
C         56.39640        39.48420        -0.86215
C         56.40036        42.42576        -0.86825
C         56.40129        43.79583        -0.85102
O         35.81877        41.73902         1.77389
O         40.76510        39.51296         1.88383
O         27.97545        32.62209        -2.74636
O         44.36744        43.10610         2.16934
O         50.99665        39.61136         1.05658
O         39.17482        43.20332        -0.98101
O         50.89648        37.93226        -2.21749
O         38.60583        39.95550        -1.15419
O         54.93066        29.08327         0.91027
O         42.12514        50.39949        -1.04659
O         29.72354        42.40859        -1.81128
O         38.49408        31.12338        -1.90216
O         29.38188        33.17966         0.52893
O         49.88499        29.24205         2.16394
O         43.58002        28.91399        -1.35790
O         49.29641        47.31657         1.57916
O         46.85038        29.41891         2.16263
O         41.34853        43.14649         2.30285
O         29.42463        30.00952        -2.66196
O         37.01354        37.59103         1.39692
O         43.09580        40.57660         2.13637
O         31.55251        34.55910         0.80571
O         31.25418        37.68478        -2.38847
O         29.03030        38.97944        -2.49113
O         34.68458        48.45733         2.40834
O         48.20859        31.74227         1.86336
O         43.34596        22.93854         2.79697
O         43.60743        39.30560        -1.39461
O         47.69953        36.66899        -2.07557
O         50.57149        46.39685        -1.68486
O         32.54088        44.15150         2.29039
H         33.32809        44.48228         2.77422
O         36.50349        29.80777         1.56684
H         35.60801        30.14412         1.78585
O         40.33680        50.13381         2.09030
H         40.36807        51.04177         2.45696
O         34.20160        30.75466        -2.47386
H         35.07531        30.36976        -2.70055
O         46.83912        30.57563        -1.31411
H         46.02048        30.23858        -1.73954
O         45.03344        37.42271        -2.54661
H         44.63596        38.28833        -2.79336
O         40.19085        48.83829        -1.32738
H         40.30012        47.92670        -1.66890
O         42.80807        49.07573         2.27884
H         42.69868        48.20852         2.72324
O         34.37362        39.75190        -2.15219
H         33.59695        39.38898        -2.63142
O         33.75722        25.55174         2.24036
H         32.91290        26.04489         2.31878
H         26.97191        26.83905        -0.59521
H         25.76929        28.87371        -1.38945
H         25.73080        31.26539        -1.87113
H         25.62597        33.31086        -1.12607
H         25.67502        35.71887        -0.78992
H         25.66615        37.63761        -0.96135
H         25.68851        40.02088        -0.71247
H         25.71665        41.75755         0.15648
H         25.74664        44.10840         0.81479
H         26.96358        46.24288         1.19966
H         29.05669        25.62744        -0.15210
H         29.06983        47.52901         1.23272
H         32.78606        23.45655         0.37819
H         30.77118        24.60581        -0.32031
H         32.68598        49.82472         1.04882
H         30.64309        48.57837         0.55233
H         34.38066        22.64689         1.13756
H         34.40410        50.82896         0.93969
H         36.47180        21.40223         1.25014
H         36.43533        51.97831         0.27745
H         40.23716        19.22356         1.46130
H         38.10496        20.41968         1.20199
H         40.18935        54.18381         0.21120
H         38.09384        52.96074         0.20564
H         42.68188        19.21098         1.43717
H         42.72027        54.19964         0.19467
H         44.83730        20.35379         1.37013
H         44.86171        53.02524         0.28144
H         48.60728        22.55590         1.00510
H         46.50876        21.36568         1.35331
H         48.66442        50.86639         0.42944
H         46.53826        52.06955         0.44780
H         50.16164        23.47666         0.39579
H         50.37804        49.96858         0.10160
H         52.23092        24.67248        -0.00076
H         52.37790        48.78778        -0.51118
H         55.72227        26.78238        -1.35748
H         53.67976        25.63613        -0.71461
H         56.13776        46.48068        -0.82619
H         54.01811        47.74005        -0.69797
H         57.03918        28.96640        -1.64122
H         57.07984        31.40487        -1.52718
H         57.28627        33.25096        -0.88425
H         57.32105        35.68044        -0.90871
H         57.34900        37.58186        -0.89915
H         57.36378        39.99934        -0.92583
H         57.35669        41.89780        -0.97648
H         57.34604        44.35084        -0.94209
