         261
 CSIRO Nanostructure Databank - Neutral Graphene Oxide Data Set
C        -10.89770         0.52155         1.30684
C         -9.67211         1.30837         1.30514
C         -8.35367         0.61024         1.34452
C         -7.27526         1.33587         0.54588
C         -6.25638         0.70088        -0.37281
C         -4.93387         1.41583        -0.62235
C         -3.75115         0.79017        -1.34245
C         -2.39085         1.50506        -1.44180
C         -1.07833         0.74510        -1.50245
C          0.20956         1.46136        -1.08472
C          1.32863         0.63976        -0.50652
C          2.54457         1.31571         0.07256
C          3.87252         0.57940         0.23923
C          4.92351         1.32956        -0.53102
C          6.07633         0.67108        -1.20350
C          7.19462         1.73189        -1.42717
C          8.70351         1.32456        -1.19487
C          9.60791         1.88136        -0.10578
C         10.64444         1.01421         0.47421
C         -9.62301         2.66512         1.42413
C         -8.33743         3.38510         1.81615
C         -7.07201         2.67492         1.24160
C         -5.78584         3.37162         0.94795
C         -4.69402         2.69012         0.14474
C         -3.49983         3.49411        -0.22529
C         -2.33763         2.93022        -0.99874
C         -1.06515         3.58802        -0.52545
C          0.29710         3.00707        -0.88618
C          1.42521         3.63525         0.00285
C          2.66169         2.82031         0.44444
C          4.06685         3.64640         0.21983
C          5.27182         2.73602        -0.09295
C          6.69915         2.92486        -0.55793
C          7.55289         4.11984        -0.87151
C          8.81000         4.30788        -0.06417
C          9.71358         3.21791         0.21891
C         -8.47623         4.90748         1.63652
C         -7.71967         5.83975         1.07104
C         -5.52649         4.82475         1.28247
C         -4.85938         5.65163         0.19487
C         -3.60674         4.98555        -0.30858
C         -2.37251         5.78521        -0.52088
C         -1.07793         5.06612        -0.31892
C          0.19363         5.83034        -0.60219
C          1.46705         5.13715        -0.15379
C          2.76258         5.89417        -0.31453
C          4.05867         5.18732         0.09939
C          5.31761         6.05034         0.00131
C          6.55032         5.65353         0.81245
C          7.81381         6.42960         0.47627
C          8.99966         5.58451         0.41010
C         -7.37750         7.02637         0.56384
C         -6.10246         7.82893         0.90783
C         -4.98756         7.13339         0.08753
C         -3.76507         7.91503        -0.34973
C         -2.42503         7.24107        -0.19973
C         -1.16454         8.01834        -0.30585
C          0.11751         7.32409        -0.71373
C          1.37007         8.23196        -0.77149
C          2.69570         7.39026        -0.57828
C          3.91573         8.24585        -0.33860
C          5.23547         7.55542        -0.11069
C          6.29060         8.28370         0.75375
C          7.68047         7.77693         0.44457
C         -6.16820         9.30096         0.53537
C         -5.10000        10.02280         0.15382
C         -3.78007         9.42871        -0.20208
C         -2.51967        10.10595         0.02740
C         -1.19182         9.53984        -0.40744
C          0.00021        10.05283         0.37094
C          1.23719         9.41859         0.23467
C          2.40800         9.99305         0.74181
C          3.73756         9.63113         0.27154
C          4.93329        10.35944         0.77411
C          6.14141         9.78130         0.82418
C        -10.97540        -0.81929         1.06378
C         -9.92770        -1.63682         0.47760
C         -8.88696        -0.95194        -0.36804
C         -7.50873        -1.60553        -0.39202
C         -6.35733        -0.73747        -0.90878
C         -5.12070        -1.40189        -1.47471
C         -3.78294        -0.69764        -1.63341
C         -2.49852        -1.48416        -1.71103
C         -1.14213        -0.78019        -1.57014
C          0.11940        -1.54550        -1.27633
C          1.47181        -0.81183        -0.99169
C          2.50571        -1.56903        -0.13456
C          3.85257        -0.90703        -0.15498
C          4.99029        -1.62218        -0.81195
C          6.20368        -0.83733        -1.23743
C          7.47145        -1.53935        -0.85842
C          8.32228        -0.74771         0.10069
C          9.63343        -1.29722         0.50741
C         10.69036        -0.32795         0.73569
C         -9.93249        -3.00986         0.50525
C         -8.94364        -3.79444        -0.21793
C         -8.28489        -3.02660        -1.33349
C         -6.41035        -3.64745        -1.55091
C         -5.10515        -2.91341        -1.61878
C         -3.84469        -3.75158        -1.70909
C         -2.50465        -3.01603        -1.67735
C         -1.26680        -3.75542        -1.24548
C         -0.06187        -2.96264        -0.79186
C          1.12775        -3.68639        -0.26828
C          2.48424        -3.04689        -0.13176
C          3.58202        -3.82550        -0.86991
C          4.92967        -3.11543        -1.06184
C          6.23671        -3.83222        -0.86581
C          7.50290        -3.03298        -0.59523
C          8.54599        -3.54796         0.36159
C          9.65398        -2.63389         0.79045
C         -8.68101        -5.09290         0.12258
C         -7.65229        -5.97971        -0.38844
C         -6.61621        -5.68462        -1.46958
C         -5.16650        -5.96712        -0.97627
C         -3.90601        -5.25644        -1.47649
C         -2.60002        -5.98967        -1.18780
C         -1.38812        -5.17446        -0.71866
C         -0.16554        -5.88046        -0.16991
C          1.13992        -5.15840        -0.01374
C          2.43236        -5.90927         0.10428
C          3.70852        -5.31848        -0.47627
C          5.02206        -6.07543        -0.49682
C          6.41535        -5.35230        -0.53610
C          7.15838        -5.57928         0.79756
C          8.19890        -4.76051         1.13895
C         -7.55137        -7.24543         0.10122
C         -6.46538        -8.17422        -0.40171
C         -5.13227        -7.39448        -0.47144
C         -3.88040        -8.22210        -0.56338
C         -2.61785        -7.43649        -0.74991
C         -1.48610        -7.77481         0.17377
C         -0.10963        -7.42067        -0.37303
C          1.08653        -8.14224         0.25508
C          2.36562        -7.38331         0.38474
C          3.24074        -7.86786         1.51110
C          5.19652        -7.52958        -0.02773
C          6.00565        -7.75724         1.20000
C          6.92536        -6.80275         1.55322
C         -6.31183        -9.38398         0.49266
C         -5.15206       -10.03220         0.66944
C         -3.87261        -9.62265         0.02060
C         -2.67418       -10.40410         0.49102
C         -1.37535       -10.24118         0.26974
C         -0.05096       -10.32624         0.22271
C          0.91833        -9.46589         1.06208
C          2.29608       -10.10498         1.26157
C          3.39255        -9.34906         1.55160
C          4.72930        -9.81909         1.91830
C          5.85731        -9.05235         1.87314
O         -3.16981        -1.00323        -2.91580
O         -5.07742        -6.25826         0.44808
O          6.41237         2.60549         0.81812
O         -5.99495         2.60899         2.19762
O          6.54550         4.85983         1.72720
O         -3.19587         5.41149        -1.64810
O         -1.71443        -7.93610         1.36918
O          0.14527        -3.04788         0.63430
O          7.36433         4.76839        -1.89216
O         -1.16896         4.14573         0.80790
O         -8.07861        -0.25440         2.17197
O          2.16748        -8.29690        -0.71867
O          4.89014         1.12790        -1.96069
O          4.85894        -1.56617         0.66655
O         -8.70294        -2.87964        -2.44466
O         -5.59660         6.24117        -0.90952
O         -3.87499         8.70469        -1.53504
O          0.06671         6.47149        -1.89332
O          8.65341        -3.73289        -1.11491
O         -6.88995        -5.92212        -2.65487
O          7.15571        -5.90559        -1.54459
O         -3.52155         2.76396         1.03984
O         -1.19708        -5.34248         0.71376
O          1.40918         8.83739        -2.01141
O         -7.38142         1.50694        -0.87968
O          2.88724         6.44094        -1.65803
O          4.10270         4.52905         1.37756
O          4.19896        -6.02528        -1.66269
O         -3.99469        -9.38532        -1.42136
O          5.68671         6.74594        -1.21737
O          1.48132         0.73845         0.92239
O          1.14456         4.53611         1.12313
O          7.14286        -1.26226        -2.24786
O          4.76101        -8.43979        -0.70545
O         -3.94868        -4.70452        -2.80663
O         -6.13749        -0.80302        -2.33186
O         -0.28252        -1.30896        -2.63794
O         -6.02507        -3.30727        -2.72708
O          5.68841        -3.59534        -2.18996
O          2.44337        -2.30485         1.12730
O         -0.10593         1.20045        -2.48027
O          3.73767        -7.09087         2.31022
O          9.22310         0.59277        -2.01542
O         -4.74207         1.56175        -2.06057
O         -2.31659        -7.05408        -2.11692
O         -5.50458         5.17710         2.45614
O         -9.21175        -0.08760        -1.16860
O         -1.66888         7.57200         1.00614
O          7.80117         0.16323         0.73531
O          1.84560        -5.29097         1.28083
O         -2.44312         2.62027        -2.39477
O         -1.57653        -3.60149        -2.64245
O          3.91209         9.40173        -1.18818
O          2.16724        -0.75627        -2.25074
H          1.49513        -0.64116        -2.96585
O          0.64929         3.54451        -2.17578
H          0.14149         3.06313        -2.87131
O          0.42098        -9.20330         2.36667
H         -0.47061        -8.77773         2.29381
O         -0.97044         9.96022        -1.77015
H         -0.06681         9.59693        -2.07192
O          5.95461         7.82205         2.10580
H          6.65774         8.11624         2.72257
O         -0.03451        -7.66251        -1.77768
H          0.89494        -7.91189        -1.99699
O          2.58195         2.70218         1.86799
H          2.60318         3.60573         2.25578
O          4.23078         0.66317         1.61754
H          3.44965         0.41504         2.15623
O         -8.25852         3.20570         3.24889
H         -7.31040         3.28977         3.50558
O         -7.10744        -2.24385         0.80668
H         -7.50018        -1.77935         1.58988
O          2.97257        -3.85756        -2.18805
H          3.63017        -4.27027        -2.79711
O          7.12488         2.11478        -2.80107
H          7.32860         3.07191        -2.90406
O         -6.81600        -8.64552        -1.71683
H         -6.94029        -7.87338        -2.31669
O         -5.80297         7.82823         2.30028
H         -5.78051         6.89740         2.63729
H         11.61871        -0.71680         1.18365
H         11.53074         1.57590         0.81952
H         10.54883         3.49295         0.88755
H          9.93907         5.89365         0.89488
H          8.51349         8.46755         0.24693
H          7.02548        10.37057         1.11161
H          4.82081        11.43891         0.95694
H          2.33982        10.69990         1.58445
H         -0.01679        11.09512         0.73052
H         -2.54045        11.09743         0.50572
H         -5.20744        11.10899         0.00753
H         -7.11579         9.82258         0.73855
H         -7.87673         7.33622        -0.37439
H         -9.27607         5.29086         2.30305
H        -10.55899         3.24355         1.47003
H        -11.81099         1.04746         1.62524
H        -11.93537        -1.32234         1.26223
H        -10.68879        -3.54891         1.09815
H         -9.28193        -5.51954         0.94449
H         -8.27252        -7.61216         0.84974
H         -7.22009        -9.75450         0.99224
H         -5.11965       -10.91333         1.32919
H         -2.94544       -11.25316         1.14917
H          0.41086       -10.88493        -0.61236
H          2.35838       -11.20442         1.27763
H          4.80390       -10.82945         2.35051
H          6.77244        -9.46414         2.32949
H          7.56119        -6.96778         2.43840
H          8.80124        -4.98550         2.03337
H         10.55192        -3.09918         1.22855
