         429
 CSIRO Nanostructure Databank - Neutral Graphene Oxide Data Set
C          1.48099         2.23223        -2.19699
C          1.27649         3.48318        -1.66239
C          2.70978         1.56098        -2.03190
C          2.34008         4.16514        -0.92485
C          1.12053         6.49712        -1.16210
C          1.22227         7.83700        -1.32818
C          2.24582         5.69824        -0.65549
C          2.47629         8.55809        -1.15314
C          1.39036        10.75392        -1.71325
C          1.40344        12.14413        -1.75154
C          2.52472        10.01536        -1.32763
C          2.55768        12.87951        -1.41679
C          1.42059        15.09640        -1.73657
C          1.45293        16.47996        -1.76251
C          2.58042        14.33244        -1.44510
C          2.65327        17.18480        -1.50722
C          2.70442        18.61733        -1.53371
C          3.80150         2.18567        -1.38997
C          3.67733         3.53487        -0.90117
C          5.03703         1.50443        -1.23853
C          4.81843         4.20888        -0.44266
C          3.51477         6.44369        -0.36343
C          3.60663         7.86663        -0.77210
C          4.79074         5.65918        -0.14263
C          4.96253         8.51363        -0.93500
C          3.71653        10.72694        -1.00617
C          3.73720        12.15602        -1.05892
C          4.92993        10.01170        -0.70199
C          4.95311        12.86286        -0.78804
C          3.79504        15.01908        -1.17473
C          3.83646        16.44767        -1.21603
C          4.99080        14.28775        -0.86430
C          5.05760        17.14473        -0.96836
C          3.87262        19.28749        -1.28704
C          5.08727        18.57597        -1.00036
C          6.15784         2.13609        -0.69140
C          6.07489         3.53279        -0.34642
C          7.39991         1.42867        -0.55438
C          7.24714         4.23090         0.07577
C          6.08412         6.38381        -0.13124
C          6.11301         7.77774        -0.27783
C          7.25542         5.62795         0.17103
C          7.34153         8.47869        -0.11692
C          6.10473        10.69593        -0.45973
C          6.14010        12.14065        -0.46467
C          7.41532         9.94436        -0.48884
C          7.33910        12.85616        -0.21258
C          6.20949        14.98615        -0.64019
C          6.25153        16.41830        -0.69262
C          7.39780        14.26341        -0.32290
C          7.47162        17.10957        -0.46425
C          6.29244        19.25167        -0.75256
C          7.49086        18.54557        -0.48882
C          8.54241         2.03138        -0.05332
C          8.46414         3.43574         0.50816
C          9.78209         1.34853         0.05770
C          9.77224         4.16055         0.31882
C          8.53843         6.33685         0.54758
C          8.52044         7.81457         0.20817
C          9.73707         5.60356        -0.10667
C          9.75321         8.53880         0.38557
C          8.49537        10.64588         0.30180
C          8.51338        12.14651         0.32788
C          9.75966         9.91482         0.47088
C          9.81471        12.84878         0.38809
C          8.63938        14.96798        -0.12237
C          8.68082        16.38274        -0.21501
C          9.85273        14.25283         0.14688
C          9.92094        17.08460        -0.05452
C          8.70748        19.22586        -0.23672
C          9.91362        18.52746        -0.03127
C         10.97530         2.01196         0.39911
C         10.95739         3.47787         0.47032
C         12.21760         1.33656         0.41712
C         12.20573         4.18660         0.65898
C         11.06457         6.32678         0.14450
C         11.03597         7.79904         0.42869
C         12.25385         5.56896         0.60424
C         12.23479         8.43992         0.97525
C         10.92842        10.67201         0.94928
C         10.99208        12.12998         0.64560
C         12.19933         9.88450         1.23020
C         12.24532        12.78886         0.56218
C         11.10233        14.94525         0.17268
C         11.14964        16.39026         0.07373
C         12.28926        14.17474         0.30637
C         12.40087        17.12107         0.13542
C         11.11962        19.21721         0.23504
C         12.37714        18.57767         0.30876
C         13.44356         1.99458         0.65792
C         13.39914         3.41774         1.16781
C         14.67603         1.34765         0.54914
C         14.70071         4.16575         1.00285
C         13.45758         6.29596         0.91184
C         13.44342         7.72967         1.03868
C         14.68335         5.59229         1.06699
C         14.67862         8.43598         1.27916
C         13.48286        10.59124         1.19427
C         13.49202        11.99146         0.70321
C         14.66354         9.87222         1.28732
C         14.80759        12.70179         0.67013
C         13.56398        14.89287         0.12984
C         13.59854        16.36521         0.16145
C         14.86717        14.16392         0.37082
C         14.90426        16.90918         0.07142
C         13.48453        19.40146         0.68884
C         14.85966        19.06304         0.51130
C         15.92078         2.02958         0.73068
C         15.91038         3.46826         0.95383
C         17.14600         1.37361         0.60026
C         17.15638         4.17611         1.05101
C         15.91573         6.31121         1.19958
C         15.91198         7.73850         1.30893
C         17.14399         5.59601         1.20169
C         17.17422         8.44553         1.32168
C         15.94160        10.58867         1.52094
C         15.97092        12.08345         1.36956
C         17.21503         9.87513         1.40555
C         17.25525        12.79810         1.30139
C         16.05912        14.90959         0.80328
C         16.07188        16.31023         0.60576
C         17.21870        14.20405         1.19434
C         17.27337        17.10107         0.88784
C         15.98579        19.41037         1.22131
C         17.27158        18.58883         1.31199
C         18.39392         2.05977         0.72300
C         18.39347         3.48478         0.98524
C         19.61083         1.39595         0.55419
C         19.62363         4.18469         1.14950
C         18.38343         6.30646         1.24701
C         18.37865         7.72236         1.23755
C         19.62343         5.59266         1.28676
C         19.65130         8.42903         0.87366
C         18.43259        10.59984         1.32656
C         18.46422        12.04906         1.34152
C         19.66596         9.89686         1.19112
C         19.69812        12.72092         1.14545
C         18.45252        14.97666         1.33408
C         18.45645        16.43278         1.09271
C         19.74032        14.19399         1.23062
C         19.78606        17.15250         1.30805
C         18.52690        19.24806         0.77736
C         19.71167        18.57629         0.80235
C         20.87142         2.04691         0.74523
C         20.88903         3.46504         1.10656
C         22.05778         1.34713         0.56419
C         22.08226         4.13471         1.31072
C         20.86094         6.32710         1.44789
C         20.89459         7.70104         1.31160
C         22.10088         5.56154         1.83047
C         22.13130         8.44345         1.35372
C         20.89036        10.56950         1.11466
C         20.90538        11.99995         1.00038
C         22.14214         9.83648         1.15582
C         22.12702        12.67059         0.69243
C         20.85889        14.92333         0.57277
C         20.96081        16.39003         0.66124
C         22.09489        14.08203         0.27728
C         22.11935        17.02704         0.23706
C         20.98406        19.20459         0.54231
C         22.16350        18.50845         0.36860
C         23.33811         1.91661         0.97206
C         23.34242         3.37907         1.37779
C         24.62468         1.29538         0.58854
C         24.65210         4.12369         1.32511
C         23.37620         6.33869         1.55978
C         23.37202         7.70777         1.47248
C         24.65897         5.60869         1.48963
C         24.65337         8.49283         1.66287
C         23.38537        10.54901         0.96623
C         23.34417        11.96790         0.64384
C         24.61038         9.87749         1.05006
C         24.52413        12.64963         0.22684
C         23.33815        14.81400         0.05085
C         23.29064        16.22044        -0.15182
C         24.53551        14.04519        -0.04508
C         24.48046        16.79044        -0.69247
C         23.39583        19.28602         0.48006
C         24.55567        19.02034        -0.20089
C         25.78687         2.01670         0.46634
C         25.73013         3.53325         0.42767
C         27.03343         1.37509         0.18634
C         27.06637         4.23339         0.55381
C         25.88571         6.37333         1.12947
C         25.89902         7.72889         1.26966
C         27.09658         5.62503         0.79255
C         27.19015         8.50998         1.35389
C         25.82871        10.51806         0.65281
C         25.74833        11.86431         0.06329
C         27.07908         9.90276         0.76120
C         27.08283        12.64453        -0.12256
C         25.77383        14.72856        -0.32877
C         25.70577        16.10470        -0.71479
C         27.02486        14.10577        -0.21363
C         26.94690        16.75993        -1.02452
C         25.86911        19.53327         0.08167
C         27.01617        18.97104        -0.46145
C         28.22964         2.08013         0.05702
C         28.25334         3.52789         0.24491
C         29.44186         1.40495        -0.26680
C         29.48293         4.22795         0.11249
C         28.31962         6.33787         0.63533
C         28.38769         7.76625         0.81605
C         29.48264         5.63541         0.24463
C         29.57332         8.46692         0.65467
C         28.29967        10.64681         0.61465
C         28.31352        11.99585         0.30270
C         29.58514         9.93726         0.86756
C         29.52015        12.86459         0.59926
C         28.25396        14.84571        -0.31179
C         28.18330        16.22296        -0.74747
C         29.48513        14.22419        -0.06117
C         29.43159        17.03905        -1.04060
C         28.35783        19.20991        -0.04211
C         29.47390        18.43256        -0.37066
C         30.67081         2.06520        -0.31262
C         30.73186         3.49976        -0.05318
C         31.85605         1.43368        -0.77572
C         31.96209         4.12097         0.03488
C         30.69657         6.38803        -0.06223
C         30.78488         7.81499         0.25110
C         32.02470         5.58135        -0.11230
C         32.01381         8.48348         0.10027
C         30.86868        10.68012         0.65511
C         30.82550        12.13614         0.37660
C         32.09143         9.93148         0.24751
C         31.99174        12.83241         0.22202
C         30.71553        14.94599        -0.29735
C         30.69941        16.26574        -0.72741
C         31.99192        14.25760        -0.05819
C         31.97855        17.00009        -1.02667
C         30.74904        19.03423        -0.18173
C         31.95537        18.43678        -0.53698
C         33.12925         2.02503        -0.68175
C         33.22871         3.28656         0.20574
C         34.19957         1.41412        -1.36993
C         34.48297         4.15312         0.05381
C         33.23018         6.35600         0.14160
C         33.23816         7.73390         0.01132
C         34.45878         5.58860         0.39430
C         34.58091         8.39797        -0.27418
C         33.24926        10.62955         0.03041
C         33.29738        12.08766         0.46141
C         34.54149         9.94107        -0.25032
C         34.49593        12.85129        -0.12516
C         33.19640        14.95932        -0.12937
C         33.22015        16.31915        -0.52064
C         34.48606        14.31334         0.34570
C         34.42444        17.02494        -0.61720
C         33.18087        19.14134        -0.54828
C         34.40842        18.47766        -0.74075
C         35.56243         1.73831        -1.13066
C         35.73110         3.59436         0.04034
C         36.65115         1.74271        -1.98071
C         36.95891         4.31302        -0.22529
C         35.75860         6.32819         0.59546
C         35.68620         7.86353         0.67413
C         36.99557         5.67132         0.10916
C         37.03202         8.54502         0.44878
C         35.81496        10.68404         0.06266
C         35.80596        12.16169         0.19472
C         37.04442         9.92155         0.37125
C         36.97495        12.88762         0.25005
C         35.73223        15.00377        -0.15801
C         35.67721        16.33585        -0.53805
C         36.97740        14.31369        -0.03926
C         36.88994        17.00319        -1.11935
C         35.63745        19.17262        -0.85040
C         36.87159        18.50849        -0.96042
C         37.88906         2.45201        -1.72195
C         38.04861         3.65917        -0.94872
C         39.00254         1.97929        -2.46813
C         39.27390         4.37824        -1.04474
C         38.21697         6.42481         0.06403
C         38.25329         7.77703         0.39779
C         39.43772         5.68314        -0.35622
C         39.61141         8.42657         0.62707
C         38.26249        10.69569         0.70922
C         38.24402        12.19721         0.63069
C         39.58239         9.96582         0.75731
C         39.54986        12.94161         0.49197
C         38.19211        15.03000        -0.23839
C         38.18466        16.35662        -0.69913
C         39.50260        14.40354         0.06735
C         39.38798        17.08607        -0.90509
C         38.08607        19.19297        -1.07112
C         39.32636        18.50336        -1.15022
C         40.20489         2.65147        -2.50128
C         40.34564         3.88958        -1.82983
C         41.49774         4.71033        -2.13125
C         40.67454         6.51573        -0.68296
C         40.58329         8.02973        -0.52102
C         41.61136         5.98517        -1.68619
C         41.94173         8.66746        -0.30178
C         40.84503        10.73092         0.48138
C         40.78874        12.18939         0.18420
C         42.05053         9.93658         0.11117
C         41.88058        12.85999        -0.30632
C         40.71679        15.01409        -0.51865
C         40.66067        16.42752        -0.87458
C         41.85795        14.25169        -0.62830
C         41.81690        17.16874        -1.15021
C         40.53130        19.21317        -1.38703
C         41.74740        18.54918        -1.40639
O         31.32180         6.02648        -1.32655
O         21.07753        14.37401        -0.76311
O         35.31719        10.43905        -1.40012
O         23.34133         2.33732         2.41071
O         14.36370        11.97599        -0.51520
O         30.37541        10.38095         2.03541
O          8.11609        11.34988         1.52106
O         19.28626        14.66667         2.53748
O          1.89074         4.73606         0.36315
O         11.36495         7.24569        -0.95259
O         24.45156        18.06848        -1.23954
O         35.09031         5.74815         1.75812
O         11.29825        10.32512         2.33409
O          3.98236         6.14045         0.99973
O         39.68989        14.01119         1.47441
O         35.82466         2.20686         0.17392
O         40.59295         5.74606         0.54365
O         40.40975        10.42614         1.86590
O         26.87920        18.06819        -1.53992
O         24.99993         4.68077         2.61739
O         14.41471        14.42731        -0.99103
O         15.07053        18.14165        -0.54119
O         15.75734        11.49950         2.69340
O         38.06998        11.51253         1.91823
O         26.39656        11.98232        -1.23738
O          5.27674         8.38594        -2.38684
H          4.57966         8.87449        -2.87693
O         40.11373         7.89624         1.85848
H         40.47590         8.65228         2.37940
O         33.48261        12.02104         1.91065
H         32.70045        11.57227         2.30013
O         40.01161         8.57749        -1.73856
H         40.58860         8.32755        -2.49059
O         34.54363        14.43433         1.78367
H         34.06292        13.66970         2.18521
O         25.24334         3.86135        -0.92122
H         25.88901         3.50306        -1.56697
O          9.50675         5.57548        -1.53536
H         10.05683         6.29890        -1.92280
O          8.75221         6.23156         1.97855
H          7.94548         6.54264         2.43937
O         36.80133        16.76301        -2.57475
H         35.91130        17.06057        -2.86367
O          7.84686         9.98414        -1.88619
H          7.20705         9.43088        -2.39277
O         35.30137         8.25016         2.00762
H         35.11957         7.41853         2.51027
O         27.44796         8.69359         2.78300
H         26.58377         8.93830         3.20039
O         20.06781        17.22973         2.72758
H         19.87187        16.34034         3.10883
O         32.12930        17.05271        -2.48468
H         31.23074        17.24007        -2.85286
O         22.07287         5.40194         3.29392
H         22.83999         4.83270         3.53253
O         29.42475        17.31484        -2.48316
H         28.58116        17.79157        -2.66617
O         24.73763         8.72347         3.12233
H         24.55136         7.86710         3.56607
O         13.20031         3.31174         2.62449
H         13.95274         2.79622         2.98505
O         19.68407         8.38984        -0.61430
H         19.62462         7.44680        -0.87972
O          8.31462         3.25967         1.96024
H          7.49987         2.73516         2.11044
O         34.92147         7.96031        -1.60786
H         35.27161         8.74859        -2.08934
O         33.22911         2.81460         1.58219
H         34.07724         2.33917         1.72120
O         17.47700        18.50504         2.76127
H         16.74222        17.98186         3.14379
O         29.46393        13.09918         2.05443
H         29.63799        12.22386         2.47951
O         34.33470        12.91500        -1.55912
H         34.59640        12.03368        -1.92425
H          0.66035         1.72661        -2.72519
H          0.28481         3.95164        -1.71830
H          2.82937         0.53962        -2.41898
H          0.15046         6.00073        -1.30469
H          0.32849         8.39302        -1.63964
H          0.45988        10.23996        -1.98716
H          0.48416        12.66360        -2.05237
H          0.46749        14.59008        -1.94031
H          0.53611        17.04456        -1.98563
H          1.78199        19.17341        -1.75621
H          5.11334         0.45947        -1.57340
H          3.89819        20.38670        -1.30930
H          7.44253         0.38284        -0.89582
H          6.31074        20.35159        -0.77150
H          9.81840         0.27470        -0.18428
H          8.71407        20.32595        -0.22171
H         12.23321         0.25937         0.18678
H         11.08019        20.31174         0.34321
H         14.70009         0.28626         0.25675
H         13.24053        20.37115         1.15059
H         17.15884         0.29323         0.39101
H         15.88312        20.15966         2.02186
H         19.60932         0.32199         0.31401
H         18.49190        20.30266         0.46513
H         22.03410         0.32860         0.14845
H         21.02078        20.30499         0.55261
H         24.65501         0.19931         0.48440
H         23.37499        20.13934         1.17524
H         27.04647         0.27803         0.09871
H         25.97427        20.25704         0.90217
H         29.40079         0.32608        -0.47921
H         28.53983        20.11961         0.55372
H         31.77036         0.43747        -1.23699
H         30.76982        20.07272         0.18829
H         33.95405         0.68168        -2.15560
H         33.17698        20.23193        -0.39505
H         36.57618         1.21840        -2.94557
H         35.62532        20.27380        -0.85206
H         38.88570         1.05076        -3.04521
H         38.09017        20.29387        -1.07238
H         41.04165         2.26486        -3.10037
H         42.23355         4.30984        -2.84454
H         42.41693         6.63443        -2.06187
H         42.84817         8.07632        -0.50376
H         43.04333        10.38601         0.26628
H         42.81337        12.31162        -0.49960
H         42.78184        14.69283        -1.02675
H         42.80131        16.68145        -1.14205
H         40.48831        20.29668        -1.56806
H         42.67366        19.10640        -1.60464
