         671
 CSIRO Nanostructure Databank - Neutral Graphene Oxide Data Set
C          5.79263        31.79030        -0.12378
C          5.75928        33.13078         0.04203
C          8.17506        27.31581         0.03589
C          8.19791        28.80712         0.32372
C          6.98301        29.61814         0.01831
C          8.22368        31.68634         0.61386
C          6.96384        30.97114         0.16742
C          8.20870        33.17475         0.38523
C          6.92089        33.91308         0.60829
C          8.20318        36.06302         0.14915
C          7.02377        35.33366         0.09935
C          8.29249        37.44804        -0.16452
C         10.81238        23.09717         0.02994
C         10.77597        24.47195         0.03405
C          9.57275        25.24089        -0.09693
C         10.74716        27.38354         0.03514
C          9.54421        26.64407         0.00652
C         10.78568        28.80777         0.17079
C          9.50461        29.54098         0.37012
C         10.74486        31.76610         0.12513
C          9.42805        31.01007        -0.05494
C         10.73671        33.19091         0.52255
C          9.45040        33.87085         0.66338
C         10.75249        36.06556         0.42809
C          9.45175        35.40137         0.61200
C         10.74329        37.46007         0.21710
C          9.50455        38.17739        -0.02283
C         10.72457        40.33744         0.14483
C          9.54170        39.58227        -0.14074
C         10.74257        41.73892         0.07166
C         13.33979        18.77633        -0.28532
C         13.28852        20.21822        -0.21458
C         12.12059        20.89796         0.04859
C         13.24900        23.08619        -0.42067
C         12.10738        22.38121         0.33389
C         13.31187        24.53861        -0.05633
C         12.04267        25.24843         0.34719
C         13.29810        27.38139         0.03716
C         12.02180        26.64192        -0.28787
C         13.31096        28.87736        -0.09156
C         11.97662        29.51058         0.20145
C         13.26370        31.67406         0.67843
C         12.01369        30.98515         0.25210
C         13.18978        33.14617         0.88607
C         11.92984        33.89169         0.61898
C         13.22716        36.01639         0.51506
C         11.95873        35.33151         0.60342
C         13.22174        37.45745         0.38910
C         11.96939        38.18642         0.32946
C         13.15891        40.28031         0.80938
C         11.92733        39.58479         0.44345
C         13.14548        41.83409         0.83901
C         11.82085        42.58552         0.72520
C         13.20411        44.68244         0.19656
C         11.99190        44.03168         0.28639
C         13.31940        46.11969         0.24943
C         15.85136        14.53093        -0.39741
C         15.80909        15.94366        -0.42797
C         14.58757        16.65113        -0.41678
C         15.78001        18.81612        -0.85508
C         14.52293        18.06897        -0.46886
C         15.75935        20.25120        -0.40100
C         14.56724        20.94740        -0.27892
C         15.75021        23.12802        -0.26906
C         14.56513        22.38014        -0.25043
C         15.74327        24.54292        -0.22000
C         14.50288        25.23946        -0.04141
C         15.73822        27.44478         0.09789
C         14.49561        26.70246         0.10192
C         15.73647        28.83615         0.30114
C         14.44395        29.49026         0.74696
C         15.74253        31.78346         0.45401
C         14.45242        31.00938         0.68920
C         15.81937        33.16003         1.15975
C         14.48050        33.91697         1.06261
C         15.70505        35.95564         0.25344
C         14.44702        35.32299         0.63194
C         15.70524        37.48327         0.13292
C         14.42646        38.17185         0.36243
C         15.61423        40.30281         0.59264
C         14.42556        39.58274         0.56526
C         15.58882        41.72413         0.65247
C         14.40589        42.46754         0.53017
C         15.63260        44.60170         0.62851
C         14.47770        43.87713        -0.02972
C         15.84438        46.06665         0.25632
C         14.53299        46.83742         0.34175
C         15.79369        49.01912         0.49806
C         14.58138        48.24034         0.47642
C         15.80682        50.39612         0.50642
C         18.33408        10.28178         0.01261
C         18.30653        11.65150        -0.17013
C         17.09138        12.39659        -0.25111
C         18.32043        14.54719        -0.27981
C         17.06379        13.80138        -0.35670
C         18.29262        15.99097        -0.24221
C         17.06605        16.69253        -0.39116
C         18.28526        18.82734        -0.46260
C         17.05815        18.09568        -0.48645
C         18.29733        20.24707        -0.49975
C         17.03313        20.93924        -0.21634
C         18.27782        23.17407        -0.54447
C         17.05290        22.44972        -0.12701
C         18.22156        24.53300        -0.68929
C         17.02536        25.24596        -0.18005
C         18.17390        27.54401        -0.58009
C         17.03386        26.76464        -0.06631
C         18.03945        28.93658        -0.50053
C         16.91454        29.56665         0.11720
C         18.25029        31.77432         0.18880
C         17.04271        30.96574         0.67345
C         18.22240        33.15617         0.30784
C         17.02884        33.90778         0.61833
C         18.24811        36.05150         0.29319
C         17.01087        35.27835         0.43385
C         18.20897        37.52383         0.31341
C         16.98237        38.18771         0.31741
C         18.17879        40.46952         0.32113
C         16.90515        39.65770         0.27895
C         18.09427        41.89066         0.76485
C         16.82893        42.44027         0.86706
C         18.45407        44.89267         1.46931
C         16.56677        43.82485         1.22542
C         18.33919        46.22309         1.08358
C         16.97380        46.88249         1.01358
C         18.33379        49.02254         0.89900
C         17.11732        48.27989         0.36758
C         18.26935        50.47663         0.94776
C         17.09814        51.14380         0.25286
C         18.39735        53.33558         0.29104
C         17.06905        52.65499         0.59143
C         18.43983        54.59958        -0.25090
C         20.92068         6.03538         0.68441
C         20.86420         7.42488         0.42973
C         19.64687         8.09148         0.37288
C         20.89665        10.30430         0.28695
C         19.57047         9.55223         0.34532
C         20.90119        11.71474        -0.18970
C         19.57150        12.39984        -0.55311
C         20.73611        14.59745         0.18898
C         19.52154        13.86702        -0.20782
C         20.76196        16.05604        -0.01692
C         19.52488        16.72223        -0.19180
C         20.75250        18.86289        -0.31695
C         19.52460        18.13555        -0.34118
C         20.72362        20.27422        -0.50495
C         19.50799        20.97320        -0.57792
C         20.67725        23.11586        -1.05564
C         19.52448        22.43907        -0.74358
C         20.69518        24.57559        -1.47263
C         19.36657        25.31124        -1.21630
C         20.73250        27.43969        -1.08784
C         19.36952        26.81502        -1.14057
C         20.86530        28.78206        -1.36209
C         19.02450        29.85295        -1.02494
C         20.57676        31.77418        -1.15226
C         19.30389        31.11231        -0.55945
C         20.59372        33.25330        -0.74403
C         19.39137        33.93570        -0.15895
C         20.78292        36.08487         0.27156
C         19.44777        35.37999         0.21492
C         20.69973        37.59145         0.12473
C         19.44371        38.26966         0.29499
C         20.64841        40.40608         0.47560
C         19.45523        39.70851         0.39938
C         20.67040        41.88566         0.54737
C         19.38757        42.64413         0.75648
C         20.75269        44.77656         0.93147
C         19.54792        44.08257         1.12903
C         20.75876        46.18048         1.04798
C         19.56078        46.91647         0.98427
C         20.81082        49.07268         1.14583
C         19.55101        48.37168         1.03943
C         20.84575        50.46664         1.01169
C         19.59900        51.23995         0.98953
C         20.87910        53.21838         0.28828
C         19.64049        52.62493         0.50704
C         20.95633        54.70894         0.06776
C         19.68258        55.26567        -0.54235
C         20.90981        57.05395        -1.72892
C         19.69729        56.39981        -1.32271
C         20.92096        58.17992        -2.51427
C         23.48759         3.30529         1.03540
C         22.22494         3.97156         0.98581
C         23.39588         6.14070         0.90446
C         22.14867         5.36572         0.88696
C         23.41109         7.42811         0.48078
C         22.15267         8.11311         0.00192
C         23.37996        10.32765         0.45870
C         22.18246         9.59779         0.26549
C         23.34300        11.72665         0.67144
C         22.16158        12.45750         0.19643
C         23.27832        14.72592         0.72952
C         22.00905        13.89986         0.53274
C         23.26464        15.94897        -0.17863
C         21.98494        16.76250        -0.05383
C         23.28737        18.90176         0.05736
C         21.98492        18.15925        -0.17791
C         23.27689        20.36899        -0.34936
C         21.97635        21.05706        -0.55356
C         23.24565        23.12588        -1.16011
C         21.95015        22.34604        -1.34514
C         23.24837        24.63404        -1.28584
C         21.93329        25.29259        -0.93789
C         23.16292        27.44731        -0.65808
C         21.94502        26.69851        -0.81780
C         23.18146        28.87508        -0.72872
C         21.97013        29.59894        -0.97446
C         23.12504        31.73631        -0.82698
C         21.91383        31.02759        -0.91560
C         23.13646        33.23081        -1.13036
C         21.93964        33.90619        -0.41557
C         23.16916        36.14020        -0.71165
C         21.81141        35.42490        -0.70810
C         23.15978        37.61894        -0.37608
C         21.88883        38.28710        -0.00987
C         23.23612        40.49650         0.25259
C         21.91610        39.75077         0.11858
C         23.23596        41.84737         0.88472
C         21.91532        42.56007         1.12082
C         23.23009        44.71244         1.29726
C         22.03637        44.02875         0.66382
C         23.25700        46.08169         1.37500
C         21.98736        46.87447         1.53399
C         23.28806        48.96415         1.25100
C         22.06162        48.33772         1.21564
C         23.36879        50.47393         1.27962
C         22.08859        51.15101         0.83738
C         23.41859        53.23233         0.40728
C         22.10010        52.48952         0.46514
C         23.37443        54.43869        -0.51632
C         22.20727        55.12917        -0.65958
C         23.34069        56.73819        -2.19932
C         22.22605        56.55101        -1.17350
C         23.39069        58.16449        -2.67672
C         22.16506        58.83218        -2.89596
C         23.40348        60.71980        -3.80242
C         22.18592        60.11882        -3.47331
C         24.65488         3.99536         1.17921
C         25.90172         6.19137         1.19993
C         24.61857         5.46971         1.49456
C         25.93517         7.48113         0.74904
C         24.70129         8.16038         0.20251
C         25.84856        10.34161         0.61170
C         24.65819         9.63587         0.53062
C         25.86422        11.78481         0.74574
C         24.57056        12.50812         1.09685
C         25.75559        14.69853         0.61790
C         24.53967        13.91354         0.53181
C         25.75365        16.11018         0.15148
C         24.54705        16.73087        -0.06233
C         25.75483        18.87635        -0.70596
C         24.47562        18.13752        -0.48692
C         25.72347        20.35627        -0.78385
C         24.51908        21.02989        -0.82766
C         25.73261        23.22004        -1.31812
C         24.43884        22.45587        -1.10472
C         25.63690        24.60281        -0.67520
C         24.46020        25.26435        -0.61469
C         25.69983        27.44971        -0.53255
C         24.40586        26.72157        -0.18209
C         25.64919        28.88236        -1.05190
C         24.39515        29.62969        -0.69484
C         25.64580        31.76908        -0.67732
C         24.37834        31.03614        -0.74118
C         25.65136        33.20816        -0.62183
C         24.43055        33.92571        -0.72961
C         25.61496        36.07727        -0.47495
C         24.42701        35.34559        -0.59420
C         25.54642        37.50419        -0.48059
C         24.45232        38.28826        -0.14297
C         25.77851        40.39698         0.78983
C         24.54743        39.74399         0.15566
C         25.57479        41.60916         1.69245
C         24.37555        42.45116         1.31851
C         25.70072        44.55888         1.83576
C         24.35196        43.86567         1.86155
C         25.69764        46.04534         1.89269
C         24.48297        46.80945         1.55605
C         25.78640        48.87152         1.13914
C         24.51992        48.20018         1.39130
C         25.79489        50.19546         0.60416
C         24.59615        51.01033         0.58196
C         25.79826        52.89258        -0.42267
C         24.61255        52.32908         0.15969
C         25.86024        54.22153        -0.86863
C         24.64024        54.98949        -1.00887
C         25.87930        56.87496        -2.02561
C         24.65518        56.20156        -1.68829
C         25.85991        58.08811        -2.67402
C         24.62166        58.77244        -2.99589
C         24.61292        60.06727        -3.56049
C         27.15137         8.23397         0.65835
C         28.32207        10.37738         0.40227
C         27.12896         9.63198         0.53587
C         28.31278        11.78930         0.36959
C         27.05053        12.47890         0.59634
C         28.29418        14.68011         0.26142
C         27.09135        13.95651         0.67913
C         28.27162        16.09463         0.10986
C         27.00728        16.82679         0.00654
C         28.21455        18.94581        -0.42997
C         27.01141        18.17867        -0.37673
C         28.21317        20.31523        -0.70288
C         26.98170        21.06532        -0.85466
C         28.21660        23.19068        -0.88147
C         26.97990        22.45231        -0.93057
C         28.20375        24.59261        -0.85240
C         26.90579        25.33242        -1.02668
C         28.10056        27.47772        -1.23637
C         26.87636        26.78870        -0.63620
C         28.12683        28.95527        -0.88629
C         26.92501        29.63951        -0.79412
C         28.12586        31.76339        -0.44436
C         26.87718        31.06379        -0.61107
C         28.09985        33.20120        -0.24635
C         26.90276        33.90064        -0.39945
C         27.88025        35.83808         0.81521
C         26.99755        35.43004        -0.42014
C         28.01325        37.33174         1.20147
C         27.20263        38.39264         0.60336
C         27.97930        40.14658         2.17989
C         26.94356        39.58425         1.20801
C         28.05316        41.65079         1.95974
C         26.88089        42.37098         1.83207
C         28.18871        44.48516         2.01901
C         26.86791        43.82572         1.89318
C         28.27571        46.00682         1.85035
C         27.00979        46.79935         1.80341
C         28.20284        48.67780         0.67290
C         27.00460        48.14033         1.18232
C         28.21511        49.99086         0.14797
C         27.00409        50.72496         0.09594
C         28.32477        52.68296        -0.95927
C         26.96594        52.02171        -0.58735
C         28.30689        54.13527        -1.12088
C         27.12827        54.83062        -1.20977
C         27.17791        56.32007        -1.48308
C         29.49666        12.52910         0.18622
C         30.71980        14.67126        -0.09015
C         29.51311        13.95435         0.10278
C         30.72743        16.07726        -0.14783
C         29.48559        16.77713        -0.08204
C         30.65380        18.81718        -0.92209
C         29.52274        18.28217        -0.05531
C         30.66208        20.32291        -0.89838
C         29.47576        21.02933        -0.85928
C         30.64744        23.20002        -1.15983
C         29.46063        22.47969        -0.96311
C         30.64687        24.62531        -1.07973
C         29.41358        25.33436        -0.93667
C         30.60385        27.47179        -0.81673
C         29.39842        26.76168        -0.94298
C         30.61125        28.91922        -0.69051
C         29.37729        29.64504        -0.70254
C         30.63395        31.84318        -0.59032
C         29.34292        31.05858        -0.50458
C         30.57572        33.17287         0.13454
C         29.32565        33.88710         0.18760
C         30.43738        35.84116         1.23306
C         29.26576        35.19230         0.70774
C         30.50279        37.17717         1.68421
C         29.26889        37.95631         1.82546
C         30.51440        40.09481         1.87728
C         29.30337        39.42739         1.92620
C         30.55140        41.54479         1.85119
C         29.34955        42.29547         1.87224
C         30.63744        44.38800         1.59211
C         29.40790        43.70715         1.77149
C         30.65521        45.80519         1.26954
C         29.48900        46.54417         1.24516
C         30.72448        48.55843         0.41411
C         29.41396        47.80258         0.42182
C         30.71045        49.90876         0.06911
C         29.49282        50.63179        -0.17542
C         29.53580        51.95705        -0.57820
C         31.96143        16.82131        -0.26418
C         33.18109        18.93641        -0.62798
C         31.98146        18.17940        -0.55719
C         33.20959        20.30437        -0.95925
C         31.91954        20.97587        -1.27592
C         33.19111        23.19764        -1.48892
C         31.89038        22.46320        -1.47096
C         33.15296        24.68111        -1.32896
C         31.86153        25.37099        -1.08055
C         33.09596        27.39323        -0.32876
C         31.83515        26.73646        -0.81336
C         33.07556        28.89052        -0.41633
C         31.86212        29.60027        -0.47801
C         33.03273        31.67549         0.13738
C         31.86968        31.03435        -0.25871
C         33.01489        33.06395         0.56560
C         31.73929        33.74222         0.63437
C         32.99470        35.76297         1.64513
C         31.67684        35.04489         1.31638
C         32.98608        37.22825         1.72336
C         31.74538        37.91096         1.79457
C         32.99041        40.04673         1.84912
C         31.75302        39.34152         1.83934
C         33.01646        41.47943         1.76780
C         31.80409        42.22218         1.73399
C         33.09741        44.31195         1.31769
C         31.83937        43.64021         1.55656
C         33.10122        45.70474         1.00303
C         31.91865        46.44574         0.91630
C         31.91809        47.83017         0.59450
C         34.39600        21.06499        -0.93701
C         35.61631        23.21018        -1.00142
C         34.44222        22.47037        -1.15050
C         35.66506        24.64869        -1.03699
C         34.41650        25.39422        -1.06621
C         35.57283        27.54079        -0.91549
C         34.36182        26.74615        -0.84201
C         35.54081        28.91740        -0.44970
C         34.32678        29.56651        -0.24886
C         35.48102        31.60301         0.44817
C         34.31022        30.97714         0.12234
C         35.50653        32.97492         1.03350
C         34.20251        33.71086         0.90374
C         35.45781        35.79721         1.22926
C         34.25525        35.09889         1.26080
C         35.54059        37.19500         1.79199
C         34.21242        37.93103         1.75165
C         35.52777        40.03078         2.14167
C         34.21735        39.32146         1.88128
C         35.47847        41.48435         1.81608
C         34.28071        42.17211         1.65016
C         34.28303        43.57652         1.37977
C         36.86117        25.32655        -0.78525
C         38.12651        27.53233        -0.41525
C         36.95552        26.76872        -0.89220
C         38.09805        28.89344        -0.28314
C         36.82609        29.69831        -0.50667
C         37.97820        31.73997         0.19393
C         36.78870        30.85824         0.48778
C         37.88630        33.11639         0.15345
C         36.68415        33.79110         0.54440
C         37.84293        35.96887         0.42438
C         36.65260        35.16771         0.72581
C         37.75721        37.38548         0.56498
C         36.64635        38.02221         1.15321
C         36.63730        39.38861         1.36831
C         39.28954        29.67705        -0.04246
C         40.44629        31.88727         0.09887
C         39.24593        31.05781         0.05140
C         40.37216        33.22833        -0.03869
C         39.06051        33.90550        -0.37959
C         38.99929        35.36187        -0.02555
O         13.16568        41.03281         2.07364
O         19.80556        29.35933        -2.05948
O         17.50201        40.21990        -0.95828
O         21.88137        12.03576        -1.21470
O         11.59981        31.57520        -1.07271
O         26.49552        14.50472         1.91710
O         17.40185        44.35948         2.20212
O         22.65439        21.18039         0.73948
O         17.34963        25.89629         1.11787
O          8.81918        29.16055         1.60119
O         20.03890        42.51082        -0.60591
O         17.15309        21.65675         1.08914
O         28.42444        45.38189         3.15766
O         28.15895        37.42072         2.65585
O         20.20193        10.15418         1.57921
O         31.80902        21.55961        -2.63180
O         32.24783        35.05113         2.67540
O         27.49897        51.97705        -1.94909
O         26.30973        46.68878         3.07795
O         33.25342        24.05883        -2.67315
O         24.93941        18.33020        -1.85213
O          9.34404        34.73467         1.90297
O         13.65328        33.58582         2.21779
O         25.90600        23.61594        -2.68084
O         36.37957        27.34094        -2.11858
O         15.66357        36.62498        -1.05635
O         18.72192        51.08721         2.17874
O         26.76171        38.15739        -0.69680
O         19.64042        33.90947        -1.63249
O         27.80437        27.25675        -2.62667
O         25.51998        40.54110        -0.62245
O         21.06923        14.14259         1.61605
O         23.18351        37.12256        -1.79469
O         19.00255        26.12272        -2.40502
O         22.54592        40.47984        -1.03487
O         11.27727        42.73537         2.08243
H         11.65675        41.99211         2.61260
O         27.21886        35.19783         1.92922
H         27.60963        35.56919         2.75335
O         22.20282        33.60279         0.97227
H         21.80469        34.29697         1.55188
O         15.78116        18.87341        -2.33067
H         15.69450        17.95217        -2.65690
O         12.10775        25.41705         1.78373
H         12.25413        24.51633         2.16204
O         16.05767        33.03873         2.57356
H         16.71419        32.32013         2.72865
O         36.89980        30.26096        -1.84699
H         36.83753        29.50201        -2.47108
O         24.85149         8.10648        -1.27295
H         25.67515         8.59201        -1.49706
O         21.28264        35.56052        -2.02651
H         21.73408        36.32890        -2.45197
O          7.53624        27.13725        -1.23564
H          7.54494        26.18349        -1.45588
O          6.72200        33.95605         2.08067
H          7.50329        34.44973         2.43590
O         23.50494        18.86292         1.49486
H         22.98202        19.60570         1.87812
O         21.82521        46.85798         3.01617
H         22.38490        47.57691         3.38323
O         27.73980        35.81740        -1.59492
H         27.18421        35.65250        -2.38486
O         33.12272        27.11176         1.13163
H         32.39722        27.62803         1.54400
O         20.47507        31.78278        -2.59832
H         19.80076        32.46637        -2.82788
O         38.96186        33.85352        -1.85113
H         38.86538        32.90880        -2.10011
O         27.48226        57.01173        -0.25134
H         26.75020        56.84211         0.37722
O         36.92117        30.30550         1.82198
H         36.66782        31.02231         2.45049
O         23.52972        50.85249         2.69003
H         23.60310        51.83689         2.70921
O         23.59521        53.77394         1.76468
H         22.80558        54.34961         1.93273
O         12.04090        26.47942        -1.74834
H         11.25113        25.94882        -1.99206
O         24.03022        43.72151         3.30955
H         24.04778        44.62103         3.70619
O         16.50886        47.10233         2.35902
H         16.60717        46.25452         2.84663
O         20.86072        24.52223        -2.94141
H         20.29187        25.25737        -3.29302
O         21.66865        42.52411         2.55038
H         22.44228        42.93432         3.01827
O         12.87645        23.00498        -1.83661
H         13.57392        23.45450        -2.35881
O         30.36101        18.44494        -2.29590
H         30.92993        18.98369        -2.88618
O         19.50764        12.37202        -2.01738
H         20.42728        12.51436        -2.34449
O         17.39510        48.18809        -1.06678
H         17.47514        49.12366        -1.38810
O         13.63015        29.18135        -1.48470
H         13.04188        28.62704        -2.04415
O         24.45652         5.54615         2.95869
H         23.63682         5.05590         3.18280
O         25.54060        28.69592        -2.50017
H         26.39354        28.25671        -2.79632
O         22.13135         8.01618        -1.46594
H         23.06892         8.11157        -1.76943
O         22.29044        44.04481        -0.76153
H         21.54728        43.55905        -1.19417
O         25.21534        41.05775         2.99106
H         25.07246        41.81583         3.60112
O         29.82564        18.67637         1.31767
H         29.14147        18.28660         1.90163
O         17.21567        30.74008         2.11563
H         17.99235        30.15361         2.23743
O         14.65039        43.74981        -1.46312
H         15.19829        44.52279        -1.74984
O         35.89660        37.04633         3.19951
H         35.97321        37.96412         3.56924
O         26.79758        25.38532        -2.50047
H         25.95249        25.82705        -2.76048
O         16.00039        53.28396        -0.12028
H         16.24495        53.32821        -1.06722
O         22.50172        57.36761         0.01059
H         22.45942        58.30914        -0.26467
O         17.37879        51.00315        -1.18802
H         16.57390        51.29140        -1.66951
O         23.49978        24.98530        -2.69398
H         22.65066        24.82130        -3.17714
O         23.00031        33.36317        -2.55997
H         22.17176        32.89701        -2.83079
O         23.32906        15.20273         2.08544
H         23.35810        14.41404         2.67453
O          8.37372        31.62767         2.05220
H          7.62265        32.13549         2.44262
O         30.77000        32.16716        -2.02223
H         31.63658        32.60886        -2.14724
O         29.22404        47.32273        -0.96219
H         29.27149        48.10635        -1.55147
O         21.28439        35.93422         1.65281
H         20.60396        36.29869         2.25827
O         16.19108        45.92145        -1.14849
H         16.51147        46.79321        -1.49317
O         22.96994        55.90945        -3.34488
H         23.65633        56.03011        -4.03383
O         14.19684        29.13125         2.12442
H         14.90128        29.53139         2.67657
O         35.73845        32.78660         2.48606
H         35.67152        33.67264         2.90690
O         35.82534        39.85075         3.59678
H         35.10080        40.28302         4.09814
O         12.40002        22.56777         1.76097
H         11.78174        22.00363         2.27147
O         15.70168        32.10258        -0.96120
H         15.37776        31.31808        -1.45451
O         24.53941        12.65516         2.56755
H         25.32267        13.22068         2.78829
O          9.13222        31.01713        -1.47056
H          9.99800        31.02908        -1.94361
O         27.63760        39.94440         3.56886
H         27.60882        38.97019         3.71355
O         24.32705        26.69218         1.28095
H         24.17308        27.60873         1.59272
O         21.88476        21.95620        -2.74553
H         21.65935        22.76525        -3.26174
O         23.25396        15.43247        -1.54503
H         23.50308        16.16446        -2.15027
O         21.10709        55.30104         1.41247
H         21.41378        56.22944         1.26894
H          4.90169        31.27081        -0.51134
H          4.83845        33.68505        -0.19520
H          7.54964        26.80454         0.82774
H          6.08560        29.08660        -0.33359
H          6.10262        35.83618        -0.23376
H          7.37203        37.99287        -0.42206
H          9.89719        22.51691        -0.17054
H          8.61759        24.69678        -0.18194
H          8.61301        40.12314        -0.37637
H          9.79994        42.25016        -0.18127
H         12.40838        18.21783        -0.09997
H         11.18081        20.33312         0.16191
H         11.07665        44.64218         0.36927
H         12.37992        46.69491         0.31540
H         14.90049        13.97618        -0.40569
H         13.65028        16.08340        -0.30680
H         13.62786        48.79203         0.52522
H         14.86686        50.96825         0.55327
H         17.38606         9.72202         0.05180
H         16.13780        11.85562        -0.14715
H         16.84417        52.76270         1.68310
H         17.50103        55.10846        -0.51965
H         19.98177         5.46637         0.76950
H         18.71074         7.51858         0.46803
H         18.74352        56.79926        -1.70455
H         19.97185        58.62562        -2.84996
H         23.50502         2.21051         0.92837
H         21.30526         3.37401         0.91036
H         23.40862        61.72340        -4.25038
H         21.24051        60.64825        -3.65842
H         25.61828         3.46616         1.21671
H         26.83711         5.70949         1.52688
H         26.80816        58.60304        -2.88938
H         25.56480        60.55725        -3.80985
H         28.11501         7.71972         0.79352
H         29.27803         9.84325         0.29681
H         29.26601        54.67055        -1.19262
H         28.01671        56.54872        -2.18713
H         30.44805        11.98642         0.08273
H         31.66553        14.11671        -0.17954
H         31.66497        50.44288        -0.05597
H         30.50411        52.47646        -0.63894
H         32.91036        16.27988        -0.12452
H         34.13045        18.43605        -0.37831
H         34.06401        46.19542         0.79527
H         32.88228        48.34793         0.47467
H         35.33678        20.55139        -0.68377
H         36.55761        22.67264        -0.80733
H         36.42817        42.03783         1.76698
H         35.24717        44.08324         1.22617
H         37.74688        24.76317        -0.45469
H         39.05936        26.98032        -0.21815
H         38.60908        38.00139         0.23735
H         37.44647        40.01674         0.96582
H         40.26317        29.16240        -0.04340
H         41.41780        31.39068         0.24570
H         41.28744        33.83933        -0.02898
H         39.87816        35.98308        -0.25775
