         324
 CSIRO Nanostructure Databank - Neutral Graphene Oxide Data Set
C          2.18342         4.81071         4.80487
C          0.96398         5.47518         4.79634
C          1.83608         7.18616         3.27514
C          0.78630         6.64854         4.05354
C          1.69029         8.47617         2.57724
C          0.47992         9.20446         2.60375
C          1.49528        11.13154         1.49180
C          0.37205        10.46612         2.03479
C          1.39071        12.47687         0.89921
C          0.15727        13.16758         0.89199
C          1.20400        15.16103        -0.05797
C          0.07473        14.47451         0.44373
C          1.16816        16.60030        -0.26108
C          0.03727        17.37512        -0.07454
C          1.12636        19.49543        -0.67654
C          0.01645        18.78626        -0.26312
C          1.13134        20.92959        -0.95799
C          0.02715        21.72932        -0.68152
C          1.04061        23.73695        -1.63092
C          0.00521        23.12319        -0.96999
C          0.95305        25.13251        -2.24679
C         -0.25539        25.87897        -1.74921
C          1.06705        27.68584        -0.76007
C         -0.19196        27.04845        -1.08681
C          1.06363        28.86421         0.02065
C          4.52224         4.64075         4.00562
C          3.26973         5.31185         4.03885
C          4.16627         6.94170         2.39604
C          3.07242         6.49981         3.27321
C          4.01266         8.26276         1.68762
C          2.80339         9.08681         1.94662
C          3.94965        11.15110         1.09070
C          2.72470        10.43006         1.50378
C          3.83194        12.49128         0.41475
C          2.50046        13.12082         0.29504
C          3.58245        15.09456        -0.85144
C          2.42385        14.44183        -0.22091
C          3.57404        16.45224        -1.06718
C          2.44391        17.27221        -0.56570
C          3.48905        19.41519        -1.59585
C          2.40170        18.76764        -0.80587
C          3.53895        20.88515        -1.63290
C          2.32463        21.56100        -1.48070
C          3.56141        23.67548        -2.26050
C          2.22715        22.94499        -1.95432
C          3.60825        25.17419        -2.18945
C          2.28730        25.91083        -2.06261
C          3.50910        27.74965        -0.88112
C          2.29272        27.14873        -1.23426
C          3.49470        28.92252        -0.05845
C          2.25111        29.47300         0.36458
C          6.90041         4.49167         3.32565
C          5.64710         5.15557         3.30357
C          6.65670         6.98326         1.97186
C          5.51489         6.36541         2.55683
C          6.57360         8.26753         1.34829
C          5.25225         8.90095         1.14449
C          6.46863        11.08179         0.59914
C          5.18994        10.35755         0.82882
C          6.27252        12.33210        -0.29899
C          4.91169        12.92155        -0.53928
C          6.04242        14.99532        -1.60635
C          4.78360        14.27975        -1.22701
C          6.02430        16.44857        -1.83546
C          4.72173        17.15210        -1.70916
C          6.01793        19.36553        -1.88048
C          4.73197        18.64170        -1.87387
C          6.03482        20.75458        -1.93699
C          4.78377        21.52632        -1.93655
C          6.03167        23.65279        -2.11732
C          4.79626        22.93553        -2.01471
C          6.09747        25.11467        -1.93653
C          4.90667        25.81035        -1.79986
C          6.08744        27.95087        -0.96939
C          4.81136        27.24115        -1.40048
C          5.96963        28.96407         0.11529
C          4.69159        29.48473         0.43065
C          9.26570         4.34690         2.62162
C          8.02747         5.03434         2.66932
C          9.08000         6.93889         1.47822
C          7.92314         6.32339         2.03881
C          8.99223         8.25442         0.96342
C          7.74673         8.92741         0.90827
C          8.78819        10.90101        -0.20539
C          7.69576        10.30563         0.42560
C          8.63631        12.06247        -1.03609
C          7.34391        12.47631        -1.25004
C          8.51834        14.99320        -2.09999
C          7.17633        14.40500        -2.09749
C          8.52250        16.46854        -1.99687
C          7.32014        17.15957        -1.87163
C          8.59979        19.39045        -1.69519
C          7.27506        18.62147        -1.66370
C          8.57916        20.83634        -2.03615
C          7.29914        21.46216        -2.12612
C          8.93191        23.84073        -2.05088
C          7.12603        22.84829        -2.45423
C          8.67233        25.02836        -1.42551
C          7.42640        25.82101        -1.71863
C          8.61069        27.82167        -0.45199
C          7.40747        27.24335        -1.18030
C          8.42589        28.90930         0.56207
C          7.06128        29.35530         0.86694
C         11.60235         4.16602         1.86312
C         10.39811         4.90993         1.99144
C         11.47815         6.79330         0.80200
C         10.33101         6.23249         1.45174
C         11.39917         8.08180         0.20319
C         10.25484         8.98562         0.58089
C         11.09260        10.62183        -1.28144
C          9.97379        10.05547        -0.45026
C         11.05231        12.04978        -1.67984
C          9.69038        12.64456        -1.99383
C         10.98709        14.89805        -2.23435
C          9.67176        14.21216        -2.04048
C         11.02478        16.44348        -2.24203
C          9.77410        17.19757        -1.99746
C         11.09525        19.28396        -1.87329
C          9.83098        18.58489        -1.88505
C         11.08239        20.71700        -1.87205
C          9.88981        21.48843        -2.02526
C         11.16321        23.51962        -1.28806
C         10.00667        22.91767        -1.78545
C         11.06666        24.78520        -0.56034
C          9.75737        25.55439        -0.57030
C         10.96734        27.44563         0.52749
C          9.92798        27.05976        -0.51322
C         10.81370        28.57891         1.41611
C          9.46323        29.21658         1.62782
C         13.88216         3.78061         1.09956
C         12.76997         4.69220         1.28626
C         13.80719         6.65039         0.08098
C         12.71054         6.05136         0.76487
C         13.70657         7.89192        -0.66187
C         12.45895         8.63410        -0.58136
C         13.49912        10.50194        -1.90414
C         12.37201         9.90025        -1.18920
C         13.48251        11.98643        -2.11626
C         12.22756        12.74526        -1.86613
C         13.48483        14.89304        -1.89200
C         12.26423        14.18468        -2.00810
C         13.46634        16.34031        -1.77000
C         12.30680        17.11345        -1.92451
C         13.57088        19.25039        -1.57472
C         12.31547        18.55093        -1.79337
C         13.62592        20.65777        -1.53990
C         12.39628        21.40425        -1.85912
C         13.73633        23.68257        -1.30349
C         12.44590        22.93022        -1.61101
C         13.54370        24.89390        -0.39407
C         12.32211        25.49077        -0.19753
C         13.38995        27.48037         0.99572
C         12.16671        26.75685         0.50082
C         13.14184        28.37099         2.17908
C         11.83655        28.96540         2.25631
C         16.38262         3.56517         0.49077
C         15.21537         4.18693         0.98851
C         16.17837         6.30695        -0.68850
C         15.09865         6.11954         0.23571
C         16.08871         7.69178        -1.38851
C         14.84970         8.45892        -1.20966
C         16.09133        10.54984        -1.86864
C         14.82610         9.77940        -1.86524
C         16.06371        11.96342        -1.92921
C         14.80147        12.72640        -2.13512
C         15.98365        14.82680        -1.66684
C         14.76183        14.18214        -1.84620
C         16.00636        16.24377        -1.26785
C         14.68786        17.02983        -1.30970
C         16.00026        19.13927        -1.13509
C         14.76694        18.49365        -1.36292
C         16.04868        20.56670        -0.96719
C         14.83732        21.36088        -1.15614
C         16.12753        23.42128        -0.54132
C         14.86497        22.74045        -0.90046
C         16.08019        24.77691         0.10238
C         14.77653        25.55835         0.11040
C         15.64408        26.99826         1.94014
C         14.60383        26.61611         1.12561
C         15.40296        27.90469         3.08055
C         14.14289        28.62648         3.08147
C         18.77111         3.58154        -0.13533
C         17.50913         4.29398        -0.02638
C         18.57870         6.16281        -1.39293
C         17.46082         5.61192        -0.52353
C         18.58879         7.69144        -1.45719
C         17.36922         8.40929        -1.54649
C         18.54188        10.59527        -1.49777
C         17.30177         9.83108        -1.63988
C         18.52972        12.03239        -1.78624
C         17.27626        12.71401        -1.85192
C         18.48206        14.85468        -1.71091
C         17.24621        14.13736        -1.78015
C         18.49310        16.27624        -1.50636
C         17.25958        16.99137        -1.32615
C         18.46909        19.08476        -0.94599
C         17.23819        18.38995        -1.13250
C         18.46586        20.40451        -0.52010
C         17.26526        21.15639        -0.57212
C         18.45240        23.06820         0.58620
C         17.37410        22.60625        -0.32037
C         18.47922        24.46857         1.18726
C         17.11486        25.16059         1.09171
C         17.97858        26.36508         3.61760
C         16.92397        26.35728         1.73163
C         17.18056        26.95711         4.61432
C         16.13315        27.90393         4.25835
C         19.91471         4.19728        -0.56870
C         21.07722         6.25128        -1.28372
C         19.90784         5.54736        -1.04274
C         21.04247         7.62776        -1.58559
C         19.84263         8.35345        -1.59340
C         21.01808        10.61561        -2.03423
C         19.88091         9.83689        -1.53948
C         20.96212        11.97350        -2.10335
C         19.74436        12.72197        -1.88890
C         20.93560        14.89600        -1.84731
C         19.72847        14.16340        -1.85035
C         20.93204        16.26630        -1.63688
C         19.72893        16.95358        -1.42695
C         20.61522        18.69299         0.15088
C         19.81666        18.42193        -1.12053
C         20.57554        19.92401         0.67036
C         19.79598        21.01058        -0.07557
C         20.55630        22.65060         1.70986
C         19.56888        22.26838         0.77275
C         20.20071        23.53982         2.74175
C         19.11018        24.38721         2.60578
C         18.78697        24.66491         5.09746
C         18.66742        25.14774         3.77128
C         18.17022        25.34799         6.14898
C         17.33913        26.45291         5.92268
O         18.01857        26.96849         2.36314
O          5.12695        16.61119        -3.02559
O         14.09008        12.37729        -3.37962
O         19.31191        10.30550        -0.27358
O         14.00130         9.77505        -3.07774
O         17.18912        23.38444        -1.56271
O          8.15109        23.47896        -3.14791
O          2.89333        18.23403         0.47608
O         15.21809        16.48534        -0.04526
O         15.82362         6.46093        -2.11965
O          8.84508        29.22674        -0.81826
O         11.02004        15.68315        -3.48529
O          4.48371        13.01717        -1.91421
O         15.42630         5.53475         1.44255
O          5.45728        28.26384        -2.23630
O         10.10795        24.77643         0.59985
O         15.81961        25.83870        -0.88383
O          6.67266        12.41772         1.10401
O          3.71616         7.02070         0.97530
O          5.01937         9.37477        -0.24404
O          7.06601        13.05970        -2.48415
O          3.03425        25.93046        -3.31364
O          3.75749        18.93500        -2.95481
O          2.74399        23.13375        -3.32646
O          7.94358        19.06005        -0.41665
O         10.06178         9.70472        -1.84974
O         20.55766        21.42993        -1.17830
O          7.66511        26.97319        -2.58780
O          4.22440        12.38294         1.82919
O         12.50928        22.36948        -2.96087
O          8.94447        28.78618         2.90507
H          9.15410        27.83745         3.02655
O          0.72131        24.92711        -3.65255
H          1.56957        24.60843        -4.04495
O         10.70201         9.73730         1.77131
H         10.80728         9.09392         2.50418
O         19.41030        25.26947         0.40908
H         19.13431        25.21092        -0.53102
O         10.51711        27.38733        -1.79941
H         10.29480        28.32620        -1.99168
O          9.42931        12.18766        -3.33662
H          8.48271        12.36701        -3.54123
O         14.18261        24.26869        -2.55476
H         14.03770        23.59537        -3.25829
O         18.32326         5.70349        -2.77125
H         17.37241         5.89793        -2.96317
O         13.74210        28.39090        -0.11128
H         14.01509        27.84015        -0.87760
O         20.50326        19.02650        -2.23865
H         20.63587        20.00232        -2.02397
H          2.31431         3.89179         5.39337
H          0.12420         5.08142         5.38574
H         -0.19092         7.14760         4.08903
H         -0.41725         8.76326         3.05780
H         -0.61050        10.95553         2.04761
H         -0.74753        12.69784         1.29835
H         -0.88818        14.99554         0.52593
H         -0.91388        16.89748         0.19728
H         -0.94417        19.29989        -0.11868
H         -0.87381        21.28571        -0.23716
H         -0.89906        23.69364        -0.71424
H         -1.23225        25.45311        -2.01993
H         -1.11573        27.55618        -0.77128
H          0.10371        29.28183         0.35563
H          4.63595         3.70580         4.57379
H          2.25572        30.38269         0.98123
H          6.99283         3.53409         3.85834
H          4.62916        30.31178         1.15298
H          9.33927         3.34104         3.06106
H          6.91839        30.04778         1.70866
H         11.61847         3.13188         2.23854
H          9.57581        30.32925         1.69195
H         13.64338         2.70871         1.03863
H         11.64430        29.73070         3.02353
H         16.42653         2.46688         0.44775
H         13.94846        29.31578         3.91861
H         18.81228         2.54464         0.22852
H         15.73613        28.51846         5.08364
H         20.87693         3.66542        -0.51648
H         22.05101         5.75882        -1.14550
H         21.99600         8.16180        -1.69987
H         21.92276        10.09120        -2.37327
H         21.85853        12.51373        -2.43716
H         21.89553        14.37943        -1.97478
H         21.87692        16.82548        -1.61625
H         21.21563        17.88837         0.60356
H         21.16468        20.17305         1.56672
H         21.54351        22.16982         1.71770
H         20.82438        23.59294         3.64674
H         19.33265        23.73247         5.29902
H         18.27853        24.96212         7.17202
H         16.77564        26.89662         6.75551
