         620
 CSIRO Nanostructure Databank - Neutral Graphene Oxide Data Set
C         23.10688        28.54723        -1.91988
C         23.09521        29.72625        -1.20321
C         23.15002        32.35057         0.10658
C         23.12873        33.56335         0.81858
C         23.02903        35.90211         2.60107
C         23.04019        37.27076         2.95029
C         23.04421        40.14316         2.63819
C         23.04046        41.50105         2.44355
C         22.99068        44.33899         1.97789
C         22.96466        45.64460         1.55422
C         25.54354        26.03571        -3.20917
C         24.35517        26.67485        -2.95534
C         25.55763        28.47923        -1.79590
C         24.32983        27.89894        -2.22695
C         25.53386        29.68050        -1.02537
C         24.30080        30.31487        -0.73686
C         25.50358        31.95775         0.69877
C         24.29422        31.54913         0.02773
C         25.41346        33.11175         1.63039
C         24.21498        33.97457         1.58173
C         25.46084        35.76072         2.86393
C         24.20051        35.18663         2.36499
C         25.47692        37.27107         3.19525
C         24.21737        38.00323         3.05016
C         25.46474        40.16811         3.00143
C         24.25267        39.45311         2.92064
C         25.48180        41.58021         2.76566
C         24.24548        42.24475         2.47501
C         25.45066        44.33929         1.99855
C         24.22405        43.64682         2.16740
C         25.42538        45.69153         1.53522
C         24.17604        46.33480         1.28635
C         25.32606        48.31591         0.48932
C         24.15275        47.65979         0.77837
C         28.04763        24.54893        -3.42202
C         28.03503        25.89979        -2.99171
C         26.79030        26.59293        -2.78957
C         28.04133        28.48343        -1.78887
C         26.79590        27.84201        -2.11893
C         27.98914        29.69988        -1.01983
C         26.77520        30.24739        -0.56375
C         27.97361        31.78928         1.03586
C         26.71799        31.33765         0.39475
C         27.99722        33.05097         1.89012
C         26.71073        33.72966         2.18340
C         27.93822        35.89015         2.53530
C         26.75238        35.17131         2.48327
C         27.94570        37.32520         2.84693
C         26.75711        37.98833         3.06958
C         28.00279        40.19021         3.37972
C         26.68600        39.42461         3.53399
C         27.97478        41.67606         3.13367
C         26.70101        42.34124         2.75021
C         27.91538        44.44034         2.10807
C         26.69950        43.68144         2.29031
C         27.88067        45.74358         1.61542
C         26.64120        46.39993         1.30440
C         27.79701        48.41720         0.40004
C         26.59198        47.71387         0.73905
C         27.81644        49.53278        -0.44846
C         30.47412        24.46056        -3.24762
C         29.22382        23.84296        -3.52142
C         30.50107        25.81845        -2.89075
C         29.27835        26.55253        -2.71180
C         30.55022        28.59105        -1.95134
C         29.26498        27.88802        -2.19283
C         30.55405        29.84836        -1.15848
C         29.23748        30.43603        -0.74216
C         30.53856        31.96067         0.87870
C         29.24460        31.47951         0.32620
C         30.50826        33.02665         1.95618
C         29.23614        33.84085         1.99918
C         30.43928        35.91463         2.57672
C         29.20973        35.19018         2.33543
C         30.44993        37.29467         2.78555
C         29.21927        38.06155         2.87503
C         30.50547        40.19349         2.95944
C         29.25742        39.44609         3.07259
C         30.53972        41.63323         2.81618
C         29.27484        42.40252         2.91475
C         30.48062        44.46413         1.99420
C         29.22778        43.84898         2.49155
C         30.42793        45.81405         1.55349
C         29.13083        46.54178         1.56191
C         30.33771        48.66100         0.56960
C         29.06794        47.95128         0.97727
C         30.27490        49.79791        -0.38866
C         28.98957        50.19663        -0.81922
C         32.91672        21.56976        -3.73604
C         31.72183        22.34960        -3.70653
C         32.97333        24.33109        -3.03941
C         31.71577        23.68853        -3.34497
C         33.04433        25.64699        -2.60101
C         31.81666        26.47058        -2.67199
C         33.06274        28.31009        -1.36523
C         31.85445        27.86135        -2.10998
C         33.03681        29.48014        -0.58559
C         31.69263        30.04403        -0.17231
C         33.00234        32.18230         0.53084
C         31.70532        31.42516         0.44161
C         32.92858        33.32535         1.53065
C         31.76624        33.84325         1.99249
C         32.96196        35.88091         2.85554
C         31.68387        35.08491         2.85066
C         32.90994        37.29304         3.11026
C         31.70873        38.00065         2.98048
C         32.95758        40.14940         2.85999
C         31.71150        39.44950         2.94700
C         32.96723        41.57439         2.75894
C         31.74826        42.35388         2.63003
C         32.84967        44.46905         1.61190
C         31.71585        43.77063         2.15272
C         32.75011        45.68928         0.90863
C         31.57562        46.44810         1.02839
C         32.88227        48.44744         0.04922
C         31.63470        47.88816         0.68312
C         32.78990        49.78665        -0.67939
C         31.45597        50.37821        -0.92070
C         32.55922        52.01512        -2.39225
C         31.42787        51.50390        -1.79850
C         35.49727        19.98307        -4.03179
C         35.38326        21.30954        -3.41189
C         34.15187        22.13588        -3.56356
C         35.52515        24.28535        -3.01859
C         34.21453        23.59872        -3.35186
C         35.50197        25.55975        -2.27431
C         34.28230        26.26602        -2.16381
C         35.44631        28.00691        -0.83001
C         34.26263        27.54561        -1.49068
C         35.42910        29.23024        -0.07225
C         34.22280        29.97005         0.04029
C         35.37331        31.80202         1.21630
C         34.22098        31.28597         0.68732
C         35.47251        33.20133         1.69540
C         34.20353        33.99914         1.83944
C         35.44714        35.80386         3.08907
C         34.15847        35.22984         2.64760
C         35.50334        37.28642         3.26966
C         34.18578        38.02230         3.27950
C         35.43349        40.05050         2.62178
C         34.19877        39.44356         2.91955
C         35.43466        41.45121         2.42484
C         34.26919        42.13098         2.76769
C         35.28160        44.28096         1.02814
C         34.21423        44.06787         1.84686
C         35.17157        45.32714         0.00126
C         33.87903        46.15166         0.05849
C         35.12070        48.03840        -0.97964
C         33.98485        47.55689        -0.32922
C         35.11419        49.39487        -1.53447
C         33.92375        50.16387        -1.54361
C         35.03218        51.95159        -2.80891
C         33.84405        51.37605        -2.28424
C         35.04070        53.18680        -3.57276
C         37.94225        19.90487        -3.65141
C         36.68897        19.33818        -4.11464
C         37.96401        21.22081        -3.17721
C         36.69141        21.96920        -3.04192
C         38.03773        24.04963        -2.48607
C         36.78008        23.45941        -3.02274
C         37.97255        25.35213        -1.80737
C         36.70585        26.06206        -1.67721
C         37.85056        27.63313        -0.09432
C         36.64750        27.25477        -0.92684
C         37.86113        29.04786         0.42147
C         36.64970        29.70818         0.55540
C         37.81123        31.50853         1.99037
C         36.56688        30.94438         1.37152
C         37.87519        32.95678         2.33577
C         36.71946        33.68651         2.33196
C         38.00999        35.78745         2.90206
C         36.72063        35.05291         2.90683
C         37.98903        37.24412         2.80577
C         36.75165        37.97145         2.85970
C         37.91053        40.05188         2.23180
C         36.70677        39.34281         2.58010
C         37.88244        41.41544         1.81217
C         36.56859        42.08463         1.69705
C         37.75604        44.09235         0.58851
C         36.50401        43.43694         1.02611
C         37.69313        45.34306        -0.10989
C         36.41652        45.98520        -0.41908
C         37.51978        47.76270        -1.72387
C         36.32348        47.22538        -1.04947
C         37.49751        49.15129        -2.28199
C         36.27272        49.94633        -2.13895
C         37.52047        51.97848        -2.86691
C         36.28005        51.28293        -2.61987
C         37.43953        53.48180        -3.02962
C         36.18630        53.87391        -3.77457
C         40.45019        17.23983        -4.56691
C         39.25286        17.90832        -4.41311
C         40.37339        19.70496        -3.17869
C         39.18080        19.16229        -3.74775
C         40.37457        21.04615        -2.63692
C         39.18030        21.83160        -2.71288
C         40.40215        23.78318        -1.81324
C         39.20813        23.17907        -2.26598
C         40.40548        25.15470        -1.38343
C         39.16769        25.86813        -1.31570
C         40.41644        27.86909        -0.32175
C         39.14193        27.24185        -0.76821
C         40.35753        29.02100         0.60934
C         39.11876        29.57102         0.93454
C         40.38816        31.45150         2.13992
C         39.09189        30.74495         1.82896
C         40.33687        32.88785         2.50236
C         39.15619        33.59407         2.65654
C         40.48833        35.74900         2.85296
C         39.17209        35.04457         2.88963
C         40.48365        37.25020         2.63141
C         39.18044        37.95353         2.57618
C         40.33904        40.02229         1.81902
C         39.15571        39.34785         2.24322
C         40.29050        41.37169         1.35967
C         39.03531        42.07224         1.34126
C         40.19604        44.04589         0.37632
C         38.98176        43.41260         0.77743
C         40.15656        45.35359        -0.19807
C         38.89949        45.96575        -0.48995
C         40.06724        48.01004        -1.46518
C         38.86782        47.15052        -1.37505
C         40.06688        49.27384        -2.03087
C         38.80967        49.89116        -2.51628
C         39.99314        52.07817        -2.82794
C         38.76246        51.36052        -2.69493
C         39.95737        53.44978        -3.30399
C         38.71928        54.10117        -3.54709
C         39.90749        56.02539        -4.44518
C         38.71748        55.38879        -4.09937
C         42.90224        17.08757        -4.15635
C         41.64306        17.75442        -3.99380
C         42.78890        19.41199        -2.55938
C         41.57801        18.95690        -3.25315
C         42.78161        20.83969        -1.98058
C         41.56330        21.64504        -2.15181
C         42.84354        23.63839        -1.41530
C         41.60658        23.01306        -1.78816
C         42.85621        25.00476        -1.01579
C         41.63086        25.76096        -0.94701
C         42.86695        27.68708        -0.00031
C         41.65856        27.08297        -0.43009
C         42.86310        28.99498         0.59594
C         41.61980        29.63965         0.97469
C         42.89156        31.58582         1.86213
C         41.65093        30.88142         1.62584
C         42.89609        32.84196         2.47275
C         41.63119        33.47600         2.89398
C         43.00992        35.52782         3.42214
C         41.66622        34.91511         3.30722
C         42.93949        37.70195         3.07503
C         41.68648        38.13504         2.67346
C         42.82027        40.00484         1.59754
C         41.62372        39.37331         1.96579
C         42.74128        41.22737         0.73230
C         41.47940        42.02330         0.93398
C         42.66988        44.04737         0.15770
C         41.45032        43.36734         0.49913
C         42.62491        45.38946        -0.31556
C         41.36753        46.02045        -0.52271
C         42.58538        48.14424        -1.29724
C         41.30312        47.44385        -0.91186
C         42.53187        49.41710        -2.02617
C         41.29037        50.03698        -2.21691
C         42.47627        52.09585        -2.87187
C         41.24732        51.41047        -2.66108
C         42.47043        53.58946        -3.04992
C         41.16753        54.12896        -3.58092
C         42.39334        56.06794        -4.49837
C         41.14485        55.41309        -4.16552
C         44.07293        17.60915        -3.64936
C         45.27530        19.40605        -2.38218
C         44.08519        18.79760        -2.86705
C         45.27606        20.77685        -1.93026
C         44.07249        21.51678        -1.82162
C         45.31124        23.55316        -1.23039
C         44.06916        22.89871        -1.49221
C         45.32171        24.93031        -0.84067
C         44.09323        25.64009        -0.69127
C         45.33078        27.64359         0.06742
C         44.10108        26.98915        -0.20542
C         45.33104        28.98533         0.54979
C         44.09781        29.64417         0.85817
C         45.36587        31.61511         1.60502
C         44.13525        30.95763         1.44541
C         45.45202        32.92161         2.28126
C         44.16787        33.56746         2.70447
C         45.47218        35.87938         3.02642
C         44.17181        35.04245         2.93677
C         45.36795        37.35575         2.50636
C         44.16625        38.13764         2.50304
C         45.29111        40.05451         1.44775
C         44.08547        39.39030         1.81250
C         45.23645        41.42255         0.99040
C         43.99927        42.05054         0.75654
C         45.15264        44.11857         0.10049
C         43.94114        43.40529         0.33960
C         45.10383        45.43537        -0.46178
C         43.85545        46.03884        -0.67166
C         45.07775        48.00023        -1.81664
C         43.79754        47.30325        -1.41257
C         45.01488        49.43075        -2.15754
C         43.76406        50.06769        -2.35333
C         44.95792        52.10346        -3.09724
C         43.71819        51.43886        -2.76738
C         44.91404        53.46372        -3.62053
C         43.70476        54.13920        -3.73513
C         43.59733        55.45087        -4.31993
C         47.68858        19.29203        -1.97656
C         46.52171        18.70496        -2.39768
C         47.75019        20.67667        -1.63047
C         46.52926        21.44027        -1.68272
C         47.78530        23.55126        -1.27485
C         46.52201        22.82491        -1.38077
C         47.79235        24.90306        -0.72210
C         46.56461        25.58647        -0.56207
C         47.80379        27.61995         0.04405
C         46.57301        26.95648        -0.14470
C         47.80803        29.00372         0.44781
C         46.57126        29.66423         0.73094
C         47.81911        31.72356         1.29557
C         46.58678        31.00715         1.19316
C         47.84205        33.11316         1.65394
C         46.64820        33.77955         2.08326
C         47.84479        35.89735         2.14130
C         46.64330        35.15026         2.36283
C         47.81365        37.32280         2.06912
C         46.54607        38.01239         2.07925
C         47.74474        40.10687         1.39978
C         46.52887        39.39646         1.65105
C         47.70887        41.49753         1.01601
C         46.45127        42.15089         0.81557
C         47.62454        44.22309         0.15035
C         46.40851        43.49499         0.35512
C         47.58754        45.54390        -0.38440
C         46.33933        46.13827        -0.75918
C         47.53791        48.17585        -1.51179
C         46.33957        47.41473        -1.35385
C         47.49011        49.47926        -2.10460
C         46.23166        50.10815        -2.40981
C         47.43733        51.96097        -3.60514
C         46.17603        51.42894        -2.96450
C         47.35947        53.43642        -3.88307
C         46.18133        54.08705        -3.96621
C         50.06401        20.51528        -0.67327
C         48.96412        21.26281        -1.16134
C         50.23336        23.34916        -0.45913
C         49.10135        22.71824        -1.14487
C         50.24091        24.75819        -0.24460
C         49.02732        25.51459        -0.37938
C         50.27574        27.54499         0.21910
C         49.04022        26.89943        -0.05010
C         50.28994        29.03787         0.11340
C         49.02021        29.69602         0.58357
C         50.28409        31.76509         1.02534
C         49.03573        31.05928         0.97162
C         50.30119        33.13846         1.34861
C         49.07638        33.81494         1.64272
C         50.30305        35.94424         1.86966
C         49.07784        35.22060         1.89189
C         50.27679        37.36833         1.88525
C         49.01799        38.04466         1.86007
C         50.22758        40.14609         1.41167
C         49.00036        39.44693         1.57284
C         50.20378        41.48151         0.71534
C         48.90174        42.22501         0.80882
C         50.09285        44.34924         0.29418
C         48.87410        43.58882         0.42153
C         50.02943        45.68686        -0.12449
C         48.79846        46.28049        -0.54987
C         49.99558        48.35671        -1.24646
C         48.77803        47.60462        -1.09012
C         49.95386        49.66362        -1.83005
C         48.71349        50.21678        -2.28558
C         49.88976        52.22261        -2.99263
C         48.69816        51.49313        -2.90440
C         51.18226        21.12655        -0.13329
C         52.41181        23.17474         0.68122
C         51.28434        22.54355         0.02036
C         52.52322        24.60329         0.71088
C         51.41439        25.39068         0.26504
C         52.70569        27.46925         0.79140
C         51.45711        26.81089         0.41954
C         52.74467        28.89816         0.78338
C         51.53854        29.67495         0.63564
C         52.79295        31.80541         0.71746
C         51.51536        31.04288         0.85026
C         52.78157        33.19050         1.29122
C         51.55466        33.85561         1.46165
C         52.79061        35.94190         1.88964
C         51.55282        35.24972         1.74549
C         52.75180        37.40055         2.14021
C         51.48608        38.11827         1.90072
C         52.71844        40.34400         1.83201
C         51.45708        39.51107         1.66497
C         52.65709        41.69958         1.15257
C         51.42623        42.33389         0.91659
C         52.58381        44.42537         0.41587
C         51.37327        43.70826         0.56646
C         52.57755        45.87832         0.21158
C         51.22656        46.54310        -0.08318
C         52.45764        48.51688        -1.00135
C         51.22969        47.82466        -0.79855
C         52.42512        49.82223        -1.57149
C         51.16093        50.41390        -1.95784
C         51.09043        51.70870        -2.51387
C         54.36086        23.00885         2.10322
C         53.37143        22.39185         1.35552
C         54.48156        24.40593         2.09327
C         53.65262        25.25168         1.32479
C         55.08535        27.40181         1.46400
C         53.83426        26.70595         1.21684
C         55.14033        28.79844         1.29002
C         53.97358        29.57224         1.04190
C         55.20986        31.72241         1.17543
C         54.01249        31.01047         1.07050
C         55.25013        33.13434         1.28480
C         54.01079        33.86994         1.45717
C         55.33736        35.95279         2.01149
C         54.01169        35.25859         1.75569
C         55.29243        37.43230         1.71364
C         54.06775        38.17481         1.98423
C         55.15882        40.20833         1.15910
C         54.00406        39.57978         1.57306
C         55.08862        41.59622         0.66640
C         53.84723        42.37313         0.82134
C         55.04585        44.48507         0.22222
C         53.82695        43.74397         0.43385
C         55.03822        45.85413        -0.14281
C         53.80051        46.55286        -0.24885
C         54.94863        48.55425        -1.09373
C         53.73369        47.87841        -0.74041
C         54.86551        49.88882        -1.56547
C         53.64987        50.50260        -1.78756
C         57.72436        24.76557         2.39980
C         56.50709        25.48618         2.34053
C         57.62499        27.38763         1.40597
C         56.38057        26.74022         1.74469
C         57.67098        28.79067         1.19591
C         56.42486        29.55561         1.57971
C         57.75982        31.67133         1.22950
C         56.45637        30.92884         0.89921
C         57.69879        33.14987         0.88779
C         56.49680        33.84427         1.16029
C         57.67343        36.00272         1.08491
C         56.50758        35.27446         1.32239
C         57.70266        37.40033         1.33153
C         56.47510        38.13296         1.45905
C         57.65427        40.28923         1.04397
C         56.45244        39.56275         1.22664
C         57.66879        41.65972         0.65996
C         56.37648        42.33150         0.42054
C         57.63970        44.53075         0.13228
C         56.32061        43.81373         0.47120
C         57.51575        45.85944        -0.47233
C         56.26877        46.53218        -0.50734
C         57.41761        48.47233        -1.47371
C         56.21232        47.86999        -1.00428
C         58.86725        25.30561         1.84956
C         60.03671        27.29641         0.95348
C         58.84668        26.64774         1.37962
C         60.03584        28.64164         0.64725
C         58.86444        29.42281         0.82194
C         60.08294        31.68080         0.14610
C         58.88199        30.89903         0.55683
C         60.08066        33.13953         0.34606
C         58.92680        33.84182         0.61824
C         60.17192        36.04333         0.86070
C         58.89121        35.35674         0.44556
C         60.20837        37.31142         1.29341
C         58.97460        38.09825         1.48579
C         60.17153        40.36302         0.94612
C         58.95277        39.64645         1.33671
C         60.11720        41.62991         0.46327
C         58.86744        42.35178         0.35657
C         59.93005        44.34212        -0.74237
C         58.83950        43.71332        -0.10361
C         59.87037        45.66610        -1.15718
C         58.67585        46.43500        -1.05376
C         58.60138        47.77338        -1.53274
O         29.13362        31.86905        -1.09454
O         33.27671        49.68434         0.71068
O         38.11112        49.20659        -3.60838
O         38.17592        46.83575        -2.63562
O         59.08459        31.24292        -0.85379
O         29.03062        47.72071         2.42279
O         36.21627        42.19840         0.24334
O         35.83600        21.39972        -1.99365
O         34.92414        37.73766         4.53396
O         57.13025        44.41745         1.51346
O         55.41314        24.91713         3.00219
O         53.48037        37.86669         3.34409
O         25.84513        32.92094         3.02328
O         48.70402        23.36416        -2.39353
O         31.19498        48.80256         1.73406
O         28.07631        41.13010         4.50807
O         55.63685        41.75950        -0.70741
O         45.02566        32.87327         3.69436
O         25.44024        36.24623         4.23401
O         42.59576        19.66879        -1.12324
O         43.00307        36.75079         4.09529
O         37.72870        24.03781        -3.96210
O         30.73834        29.93317        -2.58089
O         40.69621        36.28619         1.49270
O         36.03395        35.06608         4.22779
O         34.15198        45.18929        -1.02999
O         35.06617        34.18448         0.63493
O         59.01629        38.99298         2.64333
O         34.98699        24.33828        -4.37852
O         39.74683        30.55035         3.12376
O         41.49230        33.91309         4.33835
O         39.77450        28.21858        -1.63819
O         51.84440        46.61675         1.24854
O         36.86424        30.73789         2.81446
O         29.34955        43.49340         3.90896
O         28.06618        31.69366         2.48829
O         42.04637        48.28434         0.05723
O         34.43132        43.47366         3.08708
O         32.08615        27.63782        -3.54268
O         44.30501        47.17538        -2.77900
O         42.55804        54.12937        -1.67027
H         42.47139        55.10448        -1.73747
O         45.82169        35.98541         4.42807
H         45.02369        36.30183         4.90535
O         47.49920        51.31021        -4.92934
H         46.66954        51.53277        -5.40291
O         31.27495        29.15602         0.93448
H         31.87172        29.31529         1.69725
O         58.76228        35.58322        -0.99666
H         58.01916        35.03208        -1.32109
O         37.28813        54.03010        -1.66748
H         36.46451        53.65052        -1.29266
O         26.42654        39.29171         4.96239
H         26.82660        40.08388         5.39446
O         56.42829        29.74411         3.02355
H         56.46291        28.85599         3.43756
O         50.29310        41.11280        -0.72627
H         49.46813        40.63283        -0.95561
O         37.79786        26.78066         1.10311
H         37.07173        27.10602         1.67657
O         42.64858        40.70746        -0.65865
H         42.53262        41.48201        -1.25007
O         56.42459        30.66005        -0.52702
H         57.08432        31.22503        -0.98655
O         58.05974        31.63058         2.64419
H         57.25809        31.89427         3.14352
O         52.91235        32.03005        -0.75200
H         52.83707        31.15126        -1.18489
O         33.14654        32.81872        -0.77547
H         33.92899        33.41927        -0.70971
O         31.53344        34.63673         4.23629
H         31.07414        33.75999         4.21883
O         55.57432        35.83851         3.46092
H         54.91568        36.43368         3.89158
O         50.34467        29.30993        -1.35003
H         49.56402        28.87243        -1.75382
O         30.54542        32.27007         3.22541
H         29.66450        31.81769         3.30437
O         52.76606        40.64552         3.26862
H         52.92623        39.78640         3.72892
H         22.16220        28.09571        -2.25517
H         22.13031        30.19653        -0.97146
H         22.24336        32.06303        -0.44143
H         22.21884        34.17785         0.78069
H         22.05655        35.44214         2.37674
H         22.06684        37.77786         2.98308
H         22.09519        39.59768         2.57197
H         22.08677        41.99453         2.22220
H         22.03717        43.83318         2.17305
H         22.00696        46.16251         1.40317
H         25.52648        25.09045        -3.76720
H         23.40649        26.23902        -3.30005
H         25.28182        49.33979         0.09565
H         23.18417        48.15036         0.60653
H         27.10452        24.03141        -3.63893
H         26.87526        49.89326        -0.88537
H         29.17993        22.78835        -3.82056
H         28.89275        51.03621        -1.51994
H         32.82186        20.48674        -3.89885
H         30.78296        21.82804        -3.93105
H         32.46930        52.93035        -2.99284
H         30.47707        52.02786        -1.96657
H         34.60326        19.53058        -4.48461
H         34.10313        53.53774        -4.02817
H         36.70295        18.34521        -4.58373
H         36.16808        54.79152        -4.37906
H         40.48703        16.29486        -5.12734
H         38.34999        17.47060        -4.85845
H         39.88740        57.02677        -4.89822
H         37.76980        55.91965        -4.26190
H         42.92965        16.15929        -4.74480
H         42.34988        57.06501        -4.96010
H         45.01890        17.09274        -3.86390
H         44.50534        55.96127        -4.67030
H         48.61064        18.69478        -1.96395
H         46.53964        17.64969        -2.70214
H         48.27792        53.97214        -4.16167
H         46.18569        55.14784        -4.25395
H         50.02946        19.41720        -0.70373
H         49.90109        53.21541        -3.46115
H         52.00028        20.48322         0.21643
H         51.99364        52.32474        -2.60993
H         55.05282        22.41875         2.71755
H         53.30085        21.29704         1.36101
H         55.78001        50.45543        -1.78297
H         53.64983        51.52888        -2.17671
H         57.73021        23.76841         2.85887
H         57.40310        49.50430        -1.84778
H         59.80981        24.74058         1.84013
H         60.96808        26.71542         0.89292
H         60.96690        29.12391         0.31881
H         61.06758        31.18540         0.03229
H         61.02238        33.66923         0.14590
H         61.11848        35.49499         0.75083
H         61.16427        37.77168         1.58282
H         61.14223        39.87001         1.09370
H         61.05313        42.14455         0.20623
H         60.85760        43.77905        -0.91577
H         60.75310        46.12656        -1.62312
H         59.50188        48.24435        -1.95195
