         294
 CSIRO Nanostructure Databank - Neutral Graphene Oxide Data Set
C          1.64106         2.06696        -1.25046
C          1.46937         3.37800        -0.97308
C          2.74937         1.31334        -0.69777
C          2.24522         4.01680         0.14563
C          1.22349         6.25356         0.83179
C          1.24527         7.64046         0.97011
C          2.26776         5.55348         0.07816
C          2.38927         8.39903         0.71956
C          1.26490        10.51620         1.55268
C          1.33863        11.76121         2.04973
C          2.40988         9.91002         0.76970
C          2.52992        12.60790         1.84610
C          0.92883        15.23749         0.21796
C          1.04471        16.62429         0.46077
C          2.05745        14.48671        -0.04985
C          2.27699        17.27752         0.40609
C          2.35151        18.70509         0.56486
C          3.76198         1.93973        -0.04088
C          3.70127         3.42571         0.33887
C          5.05861         1.32810         0.23557
C          4.78360         4.11463        -0.49904
C          3.50661         6.34675        -0.24763
C          3.69015         7.64818         0.53909
C          4.75696         5.61557        -0.66395
C          4.86745         8.51103         0.12538
C          3.76496        10.44689         1.30190
C          3.72761        11.98453         1.20628
C          4.90989         9.80175         0.54048
C          4.73607        12.73189         0.65564
C          3.43208        15.05354         0.01257
C          3.50598        16.53708         0.22627
C          4.67810        14.20037         0.25237
C          4.71224        17.21341         0.30651
C          3.54176        19.37174         0.51580
C          4.78298        18.65881         0.36175
C          6.19051         2.04054        -0.00214
C          6.07868         3.37151        -0.67290
C          7.55642         1.54121         0.38546
C          7.33807         4.16276        -1.10094
C          6.03796         6.37812        -0.79076
C          6.02716         7.92294        -0.69460
C          7.29423         5.57438        -0.43094
C          7.37510         8.48775        -0.32143
C          6.17510        10.57750         0.52328
C          6.07779        12.07577         0.54933
C          7.44744         9.91365         0.07989
C          7.30174        12.83214         0.14983
C          5.98886        14.97229         0.37481
C          5.98847        16.46588         0.36260
C          7.19434        14.28013        -0.27659
C          7.19923        17.21341        -0.12711
C          5.99332        19.34868         0.26101
C          7.25762        18.69180         0.07629
C          8.57564         1.94527        -0.71346
C          8.63444         3.44954        -0.73166
C          9.90914         1.28918        -0.51953
C          9.78133         4.14839        -0.51962
C          8.59633         6.32224        -0.61181
C          8.58092         7.78489        -0.49957
C          9.76738         5.60928        -0.60921
C          9.78655         8.51278        -0.54415
C          8.57355        10.74276        -0.43757
C          8.44581        12.11141        -0.47512
C          9.75740         9.95075        -1.01552
C          9.41577        13.02627        -1.08563
C          8.54027        15.01151         0.05138
C          8.45899        16.47645        -0.40307
C          9.66370        14.30300        -0.68780
C          9.75341        17.28365        -0.59957
C          8.46903        19.34225         0.09360
C          9.77893        18.58598         0.22005
C         11.07319         1.97505        -0.25741
C         11.03371         3.46424         0.02153
C         12.32740         1.30122        -0.23667
C         12.34159         4.12738        -0.35821
C         11.04857         6.33145        -0.28698
C         11.08239         7.78981        -0.76481
C         12.35732         5.60396        -0.68229
C         12.27227         8.46257        -0.08092
C         11.10441        10.63818        -0.78171
C         11.27419        11.88643        -1.26185
C         12.27935         9.96925        -0.16511
C         12.40340        12.78130        -0.98268
C         10.93400        15.07221        -1.11585
C         10.98665        16.40033        -0.31113
C         12.27878        14.29245        -0.91416
C         12.25643        17.20981        -0.47103
C         11.04446        19.33144        -0.13669
C         12.25280        18.63553        -0.35800
C         13.57397         1.98775        -0.28863
C         13.52125         3.45557        -0.41822
C         14.78183         1.29801        -0.31904
C         14.82191         4.18294        -0.75461
C         13.55496         6.27022         0.05653
C         13.56909         7.77324        -0.04111
C         14.84634         5.63112        -0.33371
C         14.77211         8.47250         0.07231
C         13.58735        10.62032        -0.26714
C         13.58508        12.08931        -0.36373
C         14.79289         9.94484        -0.00937
C         14.85669        12.85365        -0.24236
C         13.45566        14.96760        -0.13362
C         13.50527        16.49689        -0.22101
C         14.80612        14.33542        -0.65023
C         14.82443        17.24251        -0.21726
C         13.51388        19.32549        -0.50749
C         14.77425        18.68891        -0.61253
C         16.09975         1.98985        -0.60529
C         15.98195         3.43386        -0.08909
C         17.35117         1.30326        -0.09573
C         17.27905         4.21143        -0.00330
C         16.03082         6.31919        -0.15471
C         16.00844         7.74436         0.04944
C         17.29075         5.57324         0.01002
C         17.26176         8.48307         0.02997
C         16.02386        10.66505         0.08063
C         16.11883        12.08144        -0.10515
C         17.25739         9.91157         0.52333
C         17.30290        12.79133         0.02598
C         16.06616        15.06229        -0.22238
C         16.08768        16.42311        -0.19705
C         17.34550        14.23294        -0.43176
C         17.39596        17.00480         0.26621
C         15.93260        19.44155        -0.86275
C         17.22373        18.90006        -1.31018
C         18.46321         1.97907         0.28614
C         18.42545         3.45606         0.63155
C         19.75358         1.30487         0.44723
C         19.77227         4.12388         0.33263
C         18.42373         6.30125         0.72462
C         18.57092         7.75058         0.31856
C         19.75535         5.60227         0.66152
C         19.72584         8.49765         0.81647
C         18.57686        10.65176         0.16197
C         18.49797        12.10997         0.68248
C         19.80137         9.89559         0.68458
C         19.85708        12.83153         0.54435
C         18.64260        14.90290         0.11029
C         18.62229        16.34506        -0.35097
C         19.88965        14.06843        -0.35116
C         19.85094        17.05316        -0.78402
C         18.41739        19.17102        -0.67221
C         19.77627        18.58692        -1.03121
C         20.90874         1.95060         0.72053
C         20.93203         3.42157         1.07289
C         22.20773         4.18525         0.76764
C         20.90890         6.26643         0.93230
C         20.83338         7.69895         1.47834
C         22.17717         5.53467         0.79206
C         22.12909         8.46637         1.48308
C         21.01680        10.58349         0.93590
C         21.11622        12.05803         0.74880
C         22.17800         9.81360         1.28315
C         22.37984        12.74975         0.37170
C         21.21467        14.84720        -0.34909
C         21.18970        16.36289        -0.57315
C         22.41509        14.06096         0.04914
C         22.26153        17.23414        -0.08249
C         20.90385        19.27884        -0.31741
C         22.05347        18.60902         0.07200
O          4.19892        14.45333        -1.11539
O          5.30683         5.96868        -1.98320
O          2.45487         6.25642        -1.23152
O         12.68271        13.63685        -2.13910
O         10.26619        12.45589        -2.05746
O         18.17238         8.09787        -1.05426
O          7.53168        16.76226        -1.50053
O         14.03879        12.58759         0.94090
O          2.55240        13.78163         2.22889
O          7.12581        10.07553         1.52799
O         14.11378        17.06178         1.04689
O          7.01791        12.62400         1.55400
O          6.20337        15.68992         1.62077
O         21.49855        15.44325        -1.68333
O         11.99006         9.26613         1.09800
O         18.96553        16.40155        -1.76478
O         20.50204        12.92384         1.83682
O          5.06258         3.39822        -1.74035
O         17.47892        17.53891         1.37088
O          4.01102         3.55465         1.69461
O          6.97602        14.22718        -1.69373
H          6.97205        15.15751        -2.03618
O          7.96085         2.17860         1.60522
H          7.20234         2.16662         2.22604
O         18.64680        14.86918         1.54293
H         18.13551        15.63191         1.89667
O         10.99847         6.41958         1.16622
H         10.84222         5.50114         1.51144
O         19.95516        18.76552        -2.46526
H         20.83424        18.40317        -2.70460
O          4.05412         7.19718         1.88642
H          4.08542         7.99824         2.46312
O         14.95969         4.20409        -2.20312
H         14.16091         4.68990        -2.53773
O         18.17490        12.09812         2.09355
H         18.93294        12.52785         2.56500
O         12.61619         5.63926        -2.10810
H         12.24595         6.47457        -2.49134
O         20.78645         3.51394         2.50959
H         19.86170         3.25832         2.73576
O         18.00830         6.33400         2.11968
H         18.13082         5.41824         2.47282
O          9.54863         9.87440        -2.47080
H          9.61099        10.80050        -2.81119
O          8.04106         1.48539        -1.98087
H          7.77758         2.27471        -2.51035
O         10.84556        15.36530        -2.51791
H         11.28333        14.61832        -2.99409
O          1.56255         3.68963         1.37030
H          2.31602         3.54512         2.01825
O         18.67872        10.75040        -1.27089
H         18.68985         9.82682        -1.62431
O          1.92146        13.24299        -0.54331
H          2.78400        12.94010        -0.90883
O         15.58416         3.30173         1.32152
H         15.22294         4.17334         1.60586
O          7.33885         4.26432        -2.53457
H          6.38911         4.36171        -2.80155
O          5.79586         8.43874        -2.04125
H          5.36925         7.70823        -2.55417
O          8.76663        14.94898         1.46103
H          7.92983        15.19108         1.92730
O          2.32669        10.38938        -0.60629
H          1.58640         9.92438        -1.05040
O         19.97916         3.97544        -1.09005
H         20.84579         4.37699        -1.31074
O         13.47257         5.94524         1.49096
H         12.72766         6.48388         1.85867
O         11.03532        15.99184         1.06136
H         10.76159        16.75080         1.63380
O          7.16074         5.34943         0.99593
H          7.90467         4.78212         1.29619
O         16.25652         1.92752        -2.04678
H         15.71094         2.64863        -2.45044
O         18.17054         3.53308         2.07616
H         17.23242         3.22883         2.19282
O          9.86945        18.25772         1.65684
H          9.98559        19.09748         2.14961
O         11.34919         7.88421        -2.20111
H         10.67401         8.49100        -2.60812
O         10.91966         3.64253         1.48262
H         11.66757         3.16366         1.90053
O         19.78748        13.55326        -1.69181
H         20.20343        14.23163        -2.28041
O         17.38962        14.19807        -1.88889
H         18.14790        13.61298        -2.15244
O         13.22114        14.69804         1.24525
H         13.60071        15.43342         1.77668
O          3.87090        10.04089         2.68550
H          4.74838        10.32839         3.01974
O          9.82353        17.74513        -1.95327
H          9.85472        16.96342        -2.55122
O         17.15174         9.73695         1.95713
H         17.22251        10.63218         2.37359
O         17.13713        18.13435        -2.42125
H         18.03753        17.79845        -2.65673
O         20.49554         7.52245         2.89701
H         20.15202         8.37725         3.23206
O         14.81884        14.51211        -2.07832
H         15.74453        14.35815        -2.39602
H          0.99924         1.56650        -1.99051
H          0.68019         3.96164        -1.46981
H          2.85566         0.25609        -0.98565
H          0.36296         5.67604         1.19653
H          0.32504         8.12734         1.32583
H          0.33569         9.94348         1.68881
H          0.49012        12.20028         2.59391
H         -0.06032        14.76887         0.14474
H          0.13421        17.21411         0.63741
H          1.41160        19.25902         0.70455
H          5.11695         0.29754         0.62284
H          3.57079        20.46709         0.60544
H          7.54069         0.42237         0.51769
H          5.98177        20.44610         0.33838
H          9.95574         0.20450        -0.70609
H          8.48464        20.43272         0.25273
H         12.32964         0.20165        -0.29939
H         11.07071        20.42828        -0.04035
H         14.75984         0.19654        -0.29510
H         13.48048        20.41906        -0.63042
H         17.42804         0.22214        -0.29938
H         15.85026        20.53754        -0.77562
H         19.77061         0.21896         0.26001
H         18.36828        19.77500         0.24458
H         21.84573         1.37732         0.80202
H         23.16298         3.64671         0.67141
H         23.10646         6.11382         0.67801
H         23.02818         7.94571         1.84314
H         23.13595        10.33931         1.41127
H         23.32874        12.20793         0.50124
H         23.38858        14.53692        -0.14263
H         23.22593        16.79010         0.19550
H         20.84376        20.36776        -0.18423
H         22.87065        19.19927         0.51361
