         272
 CSIRO Nanostructure Databank - Neutral Graphene Oxide Data Set
C         -9.93516         0.58410         2.74648
C         -8.97489         1.35661         1.99522
C         -7.97234         0.62765         1.17741
C         -7.24949         1.44684         0.14275
C         -6.46507         0.74832        -0.92005
C         -5.44369         1.48115        -1.79992
C         -4.06768         0.76259        -1.93220
C         -2.74399         1.52334        -1.74485
C         -1.47455         0.77685        -1.42176
C         -0.23685         1.50250        -0.89928
C          0.69826         0.78753         0.05757
C          1.85968         1.54381         0.64972
C          3.13910         0.81884         1.08671
C          4.42647         1.56430         1.36986
C          5.74496         0.79556         1.51350
C          7.06163         1.55397         1.38587
C          8.36199         0.83000         1.34707
C          9.64351         1.55623         0.95951
C         10.79716         0.81780         1.61587
C         -8.99874         2.72942         1.97623
C         -8.02674         3.53678         1.27985
C         -6.88680         2.86627         0.54395
C         -6.36929         3.69968        -0.64312
C         -5.31502         3.01030        -1.50140
C         -4.01281         3.75854        -1.63512
C         -2.74606         2.98496        -1.27333
C         -1.42368         3.70211        -1.56610
C         -0.18119         2.99239        -1.02804
C          0.63689         3.77478        -0.00006
C          1.92177         3.06316         0.51366
C          3.23831         3.77961         0.69042
C          4.49735         3.05818         1.14090
C          5.81761         3.75002         1.06177
C          7.08102         2.95827         0.83465
C          8.35522         3.70548         1.19566
C          9.54790         3.02054         1.30907
C         -8.04998         4.90113         1.37952
C         -6.94626         5.68803         0.85346
C         -6.28881         5.18350        -0.38886
C         -5.25474         6.06085        -1.12656
C         -3.99073         5.28149        -1.54494
C         -2.69709         6.01917        -1.71924
C         -1.41610         5.20091        -1.66091
C         -0.20577         5.95816        -1.19200
C          0.87571         5.25231        -0.43055
C          2.28317         5.75381        -0.67408
C          3.42512         5.16094         0.09908
C          4.78819         5.74918        -0.11652
C          6.03401         4.93361         0.14803
C          7.19655         5.79622         0.61663
C          8.30213         5.12509         1.18568
C         -6.47126         6.76511         1.52944
C         -5.09344         7.24274         1.19637
C         -4.84199         7.34027        -0.30605
C         -3.67030         8.20236        -0.69769
C         -2.60522         7.53277        -1.54102
C         -1.26027         8.17565        -1.65422
C         -0.00421         7.31987        -1.91092
C          1.22130         7.98576        -1.22126
C          2.45920         7.08952        -1.33231
C          3.80965         7.74826        -1.43709
C          5.00619         6.98767        -0.94344
C          6.25922         7.77447        -0.57638
C          7.21719         7.15677         0.34679
C         -4.60596         8.39717         2.03127
C         -3.66680         9.25952         1.62688
C         -3.27580         9.43041         0.17592
C         -1.87487         9.94811        -0.04873
C         -1.02429         9.48558        -0.97992
C          0.15193        10.29060        -1.48682
C          1.41563         9.45359        -1.56486
C          2.63568        10.02516        -1.62295
C          3.89747         9.24245        -1.60103
C          5.14307         9.91519        -1.16517
C          6.22150         9.24592        -0.71291
C        -10.01875        -0.77316         2.65630
C         -9.18059        -1.55844         1.77264
C         -8.13204        -0.84720         0.98671
C         -7.52654        -1.53998        -0.20839
C         -6.54711        -0.77271        -1.05706
C         -5.37813        -1.52376        -1.68298
C         -4.07880        -0.74463        -1.94765
C         -2.81243        -1.45648        -1.51526
C         -1.57752        -0.69616        -1.14190
C         -0.29383        -1.44458        -0.84212
C          0.80885        -0.71591        -0.12078
C          2.19821        -1.30394        -0.04614
C          3.22193        -0.69696         0.88441
C          4.50769        -1.47731         1.12949
C          5.78527        -0.71770         1.46076
C          7.12803        -1.42363         1.33249
C          8.37333        -0.62912         0.93077
C          9.64920        -1.34602         1.33044
C         10.77653        -0.52418         1.76459
C         -9.27183        -2.91569         1.72538
C         -8.46097        -3.74326         0.79511
C         -7.54782        -3.05576        -0.17593
C         -6.41290        -3.81632        -0.82805
C         -5.30490        -3.02896        -1.50827
C         -3.97517        -3.73822        -1.78263
C         -2.70702        -2.92203        -1.85880
C         -1.30756        -3.56855        -2.04027
C         -0.08558        -2.79649        -1.47149
C          1.19701        -3.48686        -1.11459
C          2.35594        -2.71465        -0.49697
C          3.60389        -3.51338        -0.22724
C          4.64431        -2.98566         0.76238
C          6.02567        -3.53137         0.41300
C          7.24146        -2.85878         0.95403
C          8.58605        -3.41533         0.44723
C          9.72471        -2.68633         1.14233
C         -8.24936        -5.18450         1.22420
C         -7.13939        -5.94359         0.51398
C         -6.22281        -5.25651        -0.45111
C         -4.87832        -5.90716        -0.64510
C         -3.81184        -5.19509        -1.41474
C         -2.56282        -5.95569        -1.83943
C         -1.29739        -5.11372        -1.72707
C         -0.29230        -5.60182        -0.65367
C          1.06593        -4.89802        -0.59857
C          2.26128        -5.63827        -0.08290
C          3.60366        -5.00899        -0.32015
C          4.86618        -5.84607        -0.09732
C          6.11794        -5.00361         0.14142
C          7.36147        -5.72469         0.52195
C          8.68132        -4.95799         0.63046
C         -7.00302        -7.26294         0.77003
C         -5.78765        -8.08063         0.39487
C         -4.93201        -7.41075        -0.66572
C         -3.83074        -8.20777        -1.26491
C         -2.51277        -7.51408        -1.56611
C         -1.56913        -7.66591        -0.36980
C         -0.17128        -7.13698        -0.64427
C          1.05699        -7.88306        -0.25951
C          2.11402        -7.06997         0.48693
C          3.43548        -7.79707         0.77397
C          4.72212        -7.02452         0.84470
C          6.01489        -7.76215         1.07908
C          7.30119        -7.03866         0.84768
C         -6.04605        -9.52193         0.03238
C         -5.12609       -10.26207        -0.60006
C         -3.80906        -9.74993        -1.14812
C         -2.63041       -10.38631        -0.38946
C         -1.34416       -10.14784        -0.56978
C         -0.02967       -10.13806        -0.74197
C          0.98196        -9.40890         0.13035
C          2.38018        -9.94551        -0.07847
C          3.51492        -9.34704         0.58506
C          4.87900        -9.92846         0.55855
C          5.98199        -9.23476         0.91576
O         -5.78499        -2.40709        -2.74391
O         -1.21908         4.35823        -2.83325
O          7.02401         2.90133        -0.64625
O          0.76178        -7.63536        -1.65382
O         -4.01986        -0.01087        -3.17682
O         -4.85765         3.53083        -2.79069
O          3.45360        -1.37112         2.14183
O         -7.79062         1.33949        -1.17991
O          3.86311        -4.19494        -1.50128
O          6.26353        -4.00990        -0.92858
O         -5.03384         8.47726        -1.17643
O         -0.08048         6.12116         0.24579
O          0.98876        -3.01656        -2.44692
O          0.53664         2.16756        -1.96517
O         -5.00837        -7.84554        -2.05299
O         -8.85460        -3.57025        -0.59800
O          5.28329        -7.06706         2.17329
O          2.25502         3.73050         1.77115
O          6.43821         4.22068        -1.08058
O          3.23760        -8.69424         1.87940
O         -2.56632        -1.09241        -0.12014
O         -3.47560        -3.29587        -3.05224
O          6.12747         6.96849        -1.82645
O          2.44868         5.86568        -2.12839
O          8.30089        -0.55278        -0.50437
O         -1.70397        -5.73729        -2.98236
O          4.03840         8.33553        -2.74910
O         -3.51953         5.72183        -2.87177
O          5.11919         3.77986         2.29231
O         -0.14405        -1.50419         0.62848
O          0.91234         8.10065         0.14451
O          7.86018         1.33256         2.60129
O          0.68169         1.18069         1.44936
O         -7.87064        -1.10993        -1.55224
O         -5.72452         2.65106         1.46285
O          1.48700        -4.76051         0.80835
O         -1.79187         1.19305        -2.77771
O          3.50082         1.21422         2.43123
O         -3.80282        -5.27375         0.08322
O         -7.29894         4.58011        -1.27720
O          4.02110         6.07779         1.07905
O         -7.09173        -0.30014         1.89475
O         -2.18587         8.20605        -2.78437
O          5.71484        -0.00905         2.72203
O         -6.88176        -4.89327        -1.70034
O          2.75037        -1.57400        -1.35876
O         -1.94373        -7.82613         0.77264
O          7.26698        -2.46489         2.35418
O          9.25869        -5.25531         1.90688
H          8.69327        -4.86157         2.60415
O         -4.17052         6.12552         1.52664
H         -4.67579         5.39826         1.96763
O          5.06762        -6.51685        -1.37461
H          5.21879        -5.80427        -2.03885
O         -4.07034        10.57091        -0.25778
H         -4.89598        10.20802        -0.66005
O         -1.06106        -3.44982        -3.44951
H         -1.85841        -3.76512        -3.93256
O         -0.99699        -5.20713         0.53603
H         -0.38922        -5.31142         1.30445
O          8.70900        -3.14468        -0.95615
H          8.60940        -2.15302        -1.06823
O         -5.91003         6.49477        -2.31104
H         -5.22754         6.64149        -3.00401
O         -3.72378       -10.26229        -2.49188
H         -3.04265        -9.73121        -2.96666
O         -4.95190        -8.07842         1.59199
H         -5.34161        -8.69443         2.24613
O          4.32978        -3.71275         1.98447
H          3.81680        -3.11671         2.58096
O         -2.83318         2.91806         0.18360
H         -1.99049         3.21406         0.61442
O          1.48993        -6.93082         1.78863
H          2.12410        -6.50229         2.40264
O         -1.92255        -8.17820        -2.69435
H         -1.48387        -7.49440        -3.25810
O         -7.94552        -5.14165         2.62571
H         -7.68234        -6.03698         2.92174
O         -5.60342         3.80105         2.35553
H         -5.40597         3.35876         3.21718
O         -6.06310         1.38438        -3.08548
H         -5.56039         1.94265        -3.71810
O         -0.26740         3.80433         1.12499
H          0.24689         4.07940         1.91998
O         -0.17882        10.80402        -2.78620
H         -0.66032        10.11242        -3.28662
O          0.19918         7.15320        -3.29323
H         -0.66715         7.25792        -3.75048
O          9.80761         1.54813        -0.47021
H          9.31044         0.73419        -0.80903
O          0.58189        -9.51073         1.49236
H          1.21984        -9.00335         2.04780
H         11.65369        -1.04325         2.18178
H         11.68806         1.39259         1.91116
H         10.48020         3.59623         1.43086
H          9.19803         5.70090         1.46364
H          8.03753         7.77435         0.74518
H          7.10442         9.80291        -0.36446
H          5.15904        11.01512        -1.19017
H          2.71759        11.11762        -1.73825
H          0.32871        11.17242        -0.81971
H         -1.66396        10.91720         0.43089
H         -3.29866        10.02826         2.32360
H         -4.93616         8.40124         3.08242
H         -6.96782         7.11462         2.44703
H         -8.80987         5.39550         2.00344
H         -9.77833         3.25946         2.54479
H        -10.62566         1.13012         3.40598
H        -10.76786        -1.31319         3.25372
H         -9.99731        -3.43637         2.36824
H         -9.21917        -5.74488         1.07691
H         -7.71857        -7.74365         1.46048
H         -6.99006        -9.98105         0.36586
H         -5.34023       -11.32078        -0.81340
H         -2.89127       -11.25208         0.24729
H          0.38306       -10.69477        -1.60402
H          2.57541       -10.65883        -0.89441
H          4.96348       -10.99820         0.31665
H          6.95501        -9.74992         0.90608
H          8.22565        -7.56502         1.13225
H          9.39093        -5.34589        -0.14305
H         10.65757        -3.23182         1.35172
