         280
 CSIRO Nanostructure Databank - Neutral Graphene Oxide Data Set
C         30.60440        31.81670         0.87586
C         30.54991        33.07128         0.87047
C         30.76158        36.09875         1.43902
C         30.48976        37.06612         0.71791
C         30.31158        40.23808         0.51513
C         30.39688        41.36179         1.02498
C         32.95714        28.87838         1.18346
C         31.87984        29.52400         0.98068
C         33.00216        31.70297         1.14130
C         31.64751        30.89453         0.97694
C         32.98362        33.11535         0.54678
C         31.69182        33.96765         0.45458
C         33.04896        36.03539         0.66871
C         31.93509        35.18422         1.36958
C         32.80467        37.25591         0.12190
C         31.46539        37.94346         0.07223
C         32.74771        40.16871         0.11797
C         31.42836        39.43953        -0.02926
C         32.73173        41.66183         0.31374
C         31.40495        42.25747         1.56125
C         32.65511        44.30145         1.04238
C         31.60253        43.67440         1.21113
C         35.81953        27.30057         0.61965
C         35.59574        28.71795         1.11346
C         34.27617        29.37916         0.75915
C         35.54978        31.64034         0.82361
C         34.23116        30.89457         0.69155
C         35.42491        33.04850         0.27259
C         34.16746        33.78187         0.39619
C         35.06595        35.79936        -1.00123
C         34.31172        35.29494         0.28374
C         35.12436        37.36605        -0.97039
C         33.90962        38.06579        -0.46356
C         35.24729        40.10506         0.36097
C         33.91983        39.50186        -0.03995
C         35.21740        41.62739         0.49728
C         34.04747        42.31244         0.64472
C         35.31513        44.55856         1.06127
C         34.03287        43.77922         1.01832
C         35.48528        45.99997         0.79121
C         38.24646        27.22493         0.19443
C         36.89656        26.72880         0.43611
C         38.16512        28.80814         0.31120
C         36.79030        29.47776         0.47648
C         37.74787        31.54410        -0.48363
C         36.70477        30.82515         0.25504
C         37.70023        33.01360        -0.66157
C         36.46826        33.73458        -0.27063
C         37.64839        35.92672        -0.75159
C         36.33215        35.24501        -0.33747
C         37.69169        37.42220        -0.61350
C         36.44587        38.17234        -1.06463
C         37.64742        40.24333        -0.36704
C         36.42778        39.55060        -0.41192
C         37.68421        41.61615        -0.07142
C         36.53541        42.31516         0.54077
C         37.74090        44.56389         0.02102
C         36.61469        43.81594         0.72733
C         37.86373        46.04830         0.15143
C         36.60323        46.52431         0.57045
C         40.79025        24.80753        -1.33926
C         39.67254        25.21342        -0.97707
C         40.47400        27.47154        -1.17493
C         39.42660        26.58467        -0.48270
C         40.35764        28.91431        -0.85737
C         38.89954        29.35332        -0.92925
C         40.58221        31.96775        -1.16080
C         38.72189        30.82388        -1.10593
C         40.31588        33.13171        -0.47835
C         39.00740        33.80936        -0.65273
C         40.10599        35.95957        -0.03293
C         38.81564        35.20790        -0.04958
C         40.15967        37.32845        -0.33965
C         38.89453        38.05865        -0.61353
C         40.20456        40.09063        -0.08417
C         38.94054        39.56594        -0.83258
C         40.25144        41.60568         0.04347
C         38.96964        42.35040         0.00813
C         40.24553        44.51482        -0.84379
C         38.95683        43.80057        -0.38830
C         40.26458        46.01121        -0.56569
C         39.09002        46.69289        -0.14171
C         40.38878        48.73588        -0.29970
C         39.31284        48.11245        -0.06629
C         43.33340        25.06197        -1.74167
C         42.02439        25.44566        -1.67548
C         42.94224        27.99517        -2.05542
C         41.76102        26.97056        -1.77138
C         42.84578        29.32620        -1.21547
C         41.47941        29.62859        -0.62468
C         42.57379        31.61725         0.33518
C         41.73858        31.09943        -0.84995
C         42.58192        33.11652         0.49079
C         41.38856        33.77776         0.25938
C         42.61475        35.86553         0.27519
C         41.26066        35.24425         0.63788
C         42.60143        37.39421         0.36011
C         41.40522        37.99561        -0.31817
C         42.76527        40.15697        -0.26676
C         41.47833        39.45088        -0.68936
C         42.78811        41.64275        -0.57216
C         41.54161        42.37339        -0.11408
C         42.84613        44.50493        -0.70046
C         41.53853        43.84370        -0.37207
C         42.84082        46.01682        -0.59952
C         41.51192        46.70991        -1.09868
C         42.92001        48.70553        -0.93979
C         41.60623        48.25022        -0.74731
C         44.22588        26.01953        -1.81573
C         45.53594        28.26164        -1.78721
C         44.35076        27.34391        -1.84380
C         45.33809        29.22600        -0.57770
C         44.05854        29.77127        -0.40933
C         45.04590        31.63703         0.86934
C         43.93527        30.99293         0.29109
C         44.93372        33.04828         1.28212
C         43.78474        33.76111         0.97731
C         45.06712        35.94931         0.81158
C         43.75057        35.27474         1.13804
C         45.15272        37.26399         0.42042
C         43.93357        37.97580        -0.16576
C         45.24372        40.15765        -0.14956
C         43.91780        39.48372        -0.02357
C         45.29119        41.63245        -0.37139
C         44.02089        42.39032        -0.00786
C         45.32108        44.51922        -0.46478
C         44.02812        43.83437        -0.49694
C         45.36501        45.86885        -0.80617
C         44.14243        46.58332        -1.31720
C         44.00150        48.07284        -1.02457
C         47.72757        27.93763        -0.69567
C         46.84430        27.61608        -1.48719
C         47.59051        28.72652         0.56687
C         46.39706        29.68429         0.25700
C         47.32239        31.42835         1.89832
C         46.26632        30.90257         0.93907
C         47.44408        32.98558         1.78124
C         46.18013        33.78703         1.66778
C         47.59088        35.86074         1.02124
C         46.25549        35.32617         1.49895
C         47.62204        37.28964         0.75434
C         46.43138        37.96378         0.48146
C         47.76466        40.08151         0.06421
C         46.43790        39.48527         0.50862
C         47.80937        41.57768        -0.18405
C         46.55688        42.38302        -0.17187
C         47.87109        44.48979         0.23277
C         46.55042        43.75460        -0.14786
C         47.78071        45.83176        -0.47123
C         46.69719        46.38261        -0.71766
C         50.14592        29.13037         0.41599
C         48.85349        29.43611         1.04487
C         49.89905        31.60594         1.98650
C         48.69623        30.76056         1.78022
C         49.96727        32.92247         1.58415
C         48.69156        33.58606         1.11204
C         50.03654        35.79303         1.06255
C         48.74828        35.11687         1.12262
C         50.11179        37.19135         1.00197
C         48.91831        37.98611         0.76627
C         50.27270        40.15029         0.58075
C         48.99005        39.34342         0.45565
C         50.32732        41.47626        -0.21312
C         49.09688        42.30762        -0.12786
C         50.43315        44.19360        -0.24643
C         49.10230        43.68512        -0.07994
C         51.23270        29.73797         0.26781
C         52.42849        31.57126         0.62860
C         52.47691        30.32977         0.09096
C         52.40204        32.81470         0.95638
C         51.23700        33.58259         1.30415
C         52.38835        35.77951         0.88545
C         51.24478        34.95556         1.09240
C         52.56245        37.00148         0.91978
C         51.44547        37.97440         1.19962
C         52.67879        40.12218         0.46596
C         51.49860        39.20300         0.30217
C         52.77382        41.32298         0.20653
C         51.71604        42.18845        -0.32822
C         51.54244        43.63104        -0.24422
O         38.32197        33.50930        -1.87773
O         48.87474        29.49700         2.50597
O         34.72329        44.08108         2.27563
O         47.83037        40.58633        -1.29482
O         51.08728        41.54473        -1.46142
O         46.86571        33.54652         2.98408
O         42.59893        30.62937        -2.00163
O         35.63686        35.59701         0.98278
O         39.62121        31.40610        -2.02911
O         45.33202        40.71396        -1.52403
O         41.64231        43.32689         0.98617
O         37.89099        44.05683        -1.36917
O         39.61670        42.04408         1.29972
O         34.13471        37.89426        -1.92047
O         40.61019        27.25533        -2.62821
O         43.99490        42.41354         1.38467
O         36.98273        42.94760         1.82355
O         31.21589        38.61184        -1.18579
O         39.37079        26.72421         0.96480
O         34.16874        30.09353        -0.50873
O         47.85973        44.69902         1.63704
H         47.04942        45.19286         1.88095
O         40.28074        44.32830        -2.29963
H         39.34173        44.35180        -2.60520
O         47.12160        27.86588         1.59516
H         47.52098        28.16291         2.44539
O         38.39758        34.99808         1.32859
H         39.18233        35.12873         1.91828
O         51.43687        38.77245        -1.03866
H         51.49264        39.56789        -1.61975
O         43.98168        37.77134        -1.61854
H         44.77950        38.23163        -1.96180
O         46.34089        39.83907         1.91968
H         45.41753        39.70534         2.22340
O         45.59829        29.05885        -2.95951
H         44.74723        28.99452        -3.44930
O         41.87437        31.08841         1.50701
H         42.32057        31.43114         2.31022
O         39.04612        39.85261        -2.23556
H         38.27766        39.41638        -2.67554
O         32.37702        34.69815         2.62501
H         32.51807        35.45047         3.23621
O         42.94769        46.32056         0.80320
H         42.89359        45.49007         1.32465
O         36.64609        38.38223        -2.50973
H         35.76153        38.61729        -2.87922
O         35.43173        39.62060         1.74252
H         36.21848        40.07456         2.11589
O         44.08909        46.39179        -2.70505
H         43.18561        46.65216        -3.02397
O         42.87038        28.34151        -3.43483
H         41.93198        28.23934        -3.72152
O         35.81591        31.79576         2.23813
H         36.53305        32.45388         2.35210
O         38.88996        29.18579         1.48987
H         39.49939        28.44506         1.72367
O         41.47829        39.52714        -2.12898
H         42.23126        38.98341        -2.44832
O         42.82349        41.78635        -2.00524
H         43.63531        41.32840        -2.32907
O         46.84660        31.08626         3.21342
H         46.51606        31.91547         3.63554
O         50.28455        40.63018         1.94286
H         50.55689        39.89751         2.54594
O         40.96735        35.33670         2.05889
H         41.77349        35.67895         2.52781
O         51.52266        38.37730         2.56448
H         51.62244        37.58251         3.12878
O         43.51400        35.54742         2.54788
H         44.38254        35.79513         2.96373
O         38.30370        28.70299        -2.07280
H         38.71583        29.06287        -2.88679
O         41.47474        46.67076        -2.54575
H         41.04069        45.80634        -2.79531
O         31.51042        34.44607        -0.86059
H         31.27850        33.70016        -1.45094
O         31.72182        41.99066         2.86710
H         32.30366        42.69033         3.22819
O         40.15590        39.56786         1.26933
H         39.80244        40.29611         1.84078
O         37.75437        35.76841        -2.18562
H         37.31599        36.53436        -2.62453
O         42.47186        37.80179         1.74995
H         41.71130        38.43176         1.82116
O         48.47888        33.21823        -0.29128
H         49.27410        33.48245        -0.80178
O         34.67755        35.32066        -2.25697
H         34.08514        35.99321        -2.66312
O         50.92176        31.00343         2.60493
H         50.62598        30.08980         2.84257
O         35.69031        28.74077         2.52265
H         36.57963        28.43046         2.79132
O         33.12984        31.88215         2.55546
H         32.74070        32.75286         2.80955
O         32.27132        42.23516        -0.89144
H         31.46756        41.75928        -1.19187
O         42.83241        35.45003        -1.08589
H         43.40565        36.10507        -1.55140
O         46.15181        35.90022         2.85825
H         46.70914        35.33418         3.44522
