         404
 CSIRO Nanostructure Databank - Neutral Graphene Oxide Data Set
C          1.60909         1.90019        -1.81587
C          1.66302         3.26293        -2.10738
C          2.71102         1.24514        -1.26524
C          2.81727         4.02345        -1.81359
C          2.04128         5.97881        -3.12002
C          2.30905         7.21100        -3.69275
C          2.95335         5.41664        -2.19906
C          3.41425         7.94759        -3.24403
C          2.33453        10.94461        -3.80253
C          2.07109        12.21408        -3.31853
C          3.43290        10.23150        -3.30257
C          2.97549        12.82801        -2.42439
C          1.71306        14.99516        -2.57015
C          1.67025        16.36846        -2.42164
C          2.84936        14.25177        -2.16215
C          2.77885        17.07262        -1.89113
C          2.75776        18.51775        -1.79656
C          3.87496         1.96680        -0.93414
C          3.91075         3.38471        -1.16713
C          5.04568         1.29137        -0.47106
C          5.04144         4.15328        -0.76259
C          4.07382         6.18470        -1.75257
C          4.23400         7.54762        -2.17518
C          5.10950         5.53826        -0.99178
C          5.28195         8.41005        -1.60746
C          4.24408        10.68730        -2.24623
C          4.07490        12.07314        -1.90026
C          5.28152         9.85022        -1.62065
C          5.08848        12.75540        -1.14457
C          3.92824        14.94027        -1.54485
C          3.91205        16.36233        -1.45980
C          5.03212        14.16309        -1.02525
C          5.02875        17.12333        -0.76663
C          3.85734        19.23260        -1.42983
C          5.13137        18.61672        -1.12579
C          6.18846         1.98981        -0.09346
C          6.11148         3.46922        -0.01204
C          7.43069         1.34411         0.10982
C          7.34709         4.24808         0.36703
C          6.30082         6.29251        -0.66164
C          6.33831         7.70898        -0.93636
C          7.42469         5.64774        -0.09865
C          7.48473         8.43106        -0.50742
C          6.30900        10.55680        -0.90023
C          6.25194        12.01034        -0.68921
C          7.43165         9.84264        -0.43539
C          7.28699        12.68754        -0.04491
C          6.15014        14.88254        -0.49968
C          6.26827        16.26356        -0.68014
C          7.23241        14.13949         0.14881
C          7.57826        16.80512        -0.67994
C          6.19825        19.48226        -0.93680
C          7.59412        19.10787        -0.93708
C          8.62757         2.03581         0.36376
C          8.61030         3.48962         0.81184
C          9.85147         1.35943         0.34267
C          9.91514         4.18542         0.49125
C          8.66691         6.33557         0.04025
C          8.68251         7.73728        -0.12630
C          9.89909         5.61828         0.29338
C          9.90283         8.47265         0.05590
C          8.56465        10.51594         0.22991
C          8.50131        11.99162         0.42981
C          9.89379         9.87724         0.19824
C          9.78718        12.71744         0.56427
C          8.50997        14.90683         0.58445
C          8.67795        16.23450        -0.05201
C          9.73824        14.09475         0.79787
C          9.95456        16.92103        -0.16786
C          8.72258        19.78491        -0.52158
C         10.03364        19.15238        -0.52789
C         11.10927         1.98724         0.58604
C         11.10776         3.46281         0.64711
C         12.25853         1.16529         0.48599
C         12.36024         4.19034         0.58036
C         11.10152         6.33823         0.20147
C         11.13207         7.76917         0.15153
C         12.35953         5.58931         0.12605
C         12.32714         8.51898         0.34722
C         11.08073        10.61368         0.41870
C         11.04390        12.05233         0.60196
C         12.33314         9.92655         0.47194
C         12.26284        12.79442         0.75398
C         10.92662        14.71941         1.19831
C         10.99699        16.80796         0.70933
C         12.20154        14.19903         0.96320
C         12.32444        17.37579         0.57190
C         11.17184        19.59609         0.10085
C         12.38054        18.78868         0.31001
C         13.56565         1.55679         0.91326
C         13.54821         3.69662         1.08083
C         14.84531         1.20822         0.51555
C         14.85575         4.26310         0.85287
C         13.65521         6.35329         0.27156
C         13.55846         7.78183         0.63376
C         14.89420         5.66031         0.62928
C         14.85994         8.53991         0.79681
C         13.57777        10.66582         0.64560
C         13.54657        12.10834         0.78383
C         14.81716        10.00339         0.67084
C         14.72672        12.82233         1.03067
C         13.40355        15.08181         1.19138
C         13.47287        16.58101         0.82767
C         14.68510        14.29137         1.32463
C         14.75032        17.22255         0.68972
C         13.61104        19.41379         0.49322
C         14.81166        18.67574         0.63634
C         16.03449         2.02058         0.78517
C         16.02312         3.46522         0.86231
C         17.28415         1.37789         0.78819
C         17.31479         4.17044         0.49041
C         16.11050         6.40295         0.61656
C         16.09677         7.79773         0.58079
C         17.34934         5.66400         0.69079
C         17.30852         8.56145         0.15726
C         16.06194        10.70788         0.69777
C         16.01230        12.14727         0.92640
C         17.29467        10.00639         0.62721
C         17.21474        12.83639         0.99119
C         15.97854        15.05628         1.30385
C         15.97018        16.44632         0.78624
C         17.26660        14.28824         1.18340
C         17.19242        16.94079         0.35799
C         15.99400        19.46893         0.87787
C         17.27099        19.05921         0.48151
C         18.52739         2.06463         1.02051
C         18.54867         3.48874         1.00271
C         19.73113         1.36460         1.22910
C         19.73453         4.21315         1.27318
C         18.55339         6.34441         0.77571
C         18.60415         7.79564         0.45324
C         19.76799         5.66964         1.16056
C         19.84445         8.55620         0.81000
C         18.53493        10.68316         0.79432
C         18.50444        12.16990         0.57687
C         19.76171        10.01952         0.98989
C         19.70883        12.88123         1.10519
C         18.52071        14.99166         0.86265
C         18.49124        16.37986         0.64341
C         19.73896        14.27165         1.05468
C         19.68452        17.16629         0.61171
C         18.56526        19.42625         0.89315
C         19.72809        18.59932         0.72096
C         20.94006         2.06393         1.47277
C         20.91500         3.48967         1.56417
C         22.17906         1.38307         1.61594
C         22.13157         4.19445         1.99037
C         20.93441         6.40617         1.45459
C         21.00385         7.82503         1.35361
C         22.13062         5.72011         1.98141
C         22.16620         8.55065         1.69177
C         20.93876        10.68642         1.46515
C         20.84225        12.15390         1.65632
C         22.12069         9.98906         1.74635
C         22.09843        12.96458         1.94370
C         20.98699        14.99500         1.07730
C         20.96094        16.40411         0.61459
C         22.16676        14.35395         1.42247
C         22.27193        17.14938         0.66448
C         20.99323        19.25459         0.89514
C         22.23313        18.60709         0.88281
C         23.41043         2.07703         1.73685
C         23.42256         3.50577         1.89188
C         24.64010         1.38749         1.69793
C         24.62786         4.23278         1.92015
C         23.42597         6.42576         1.93292
C         23.41883         7.84699         1.90842
C         24.63055         5.68540         1.95878
C         24.64938         8.56225         2.00550
C         23.30990        10.66862         2.41038
C         23.35720        12.20076         2.24940
C         24.64911         9.99559         2.08256
C         24.64863        12.91631         2.06882
C         23.45302        15.02806         1.31233
C         23.50827        16.42860         1.02702
C         24.64309        14.32181         1.59199
C         24.72397        17.14547         0.99838
C         23.45666        19.26827         1.12213
C         24.71994        18.62044         1.07174
C         25.86670         2.08805         1.71870
C         25.86981         3.52639         1.81234
C         27.08890         1.39298         1.58223
C         27.10271         4.23244         1.75601
C         25.87574         6.38826         1.90927
C         25.88291         7.82030         1.95411
C         27.10719         5.67124         1.81913
C         27.12436         8.50463         1.96235
C         25.85859        10.71088         2.12842
C         25.90688        12.13713         2.01949
C         27.13601         9.95325         2.23934
C         27.11332        12.85654         1.95629
C         25.88049        14.98735         1.49249
C         25.92002        16.36671         1.11983
C         27.10862        14.29041         1.74899
C         27.18809        16.93343         0.86699
C         25.86730        19.43060         1.33305
C         27.20292        19.05739         1.02583
C         28.31446         2.08294         1.48236
C         28.32499         3.52036         1.58310
C         29.51955         1.39454         1.21515
C         29.55913         4.22146         1.45276
C         28.34079         6.37423         1.72783
C         28.34574         7.80759         1.81202
C         29.56221         5.65220         1.53021
C         29.57383         8.52760         1.58332
C         28.47096        10.69782         2.20642
C         28.37904        12.19203         2.12700
C         29.64073         9.94769         1.65785
C         29.48182        12.97276         2.40538
C         28.31225        15.02889         1.78021
C         28.38184        16.40544         1.38435
C         29.52129        14.39111         2.18222
C         29.60191        17.17473         1.40331
C         28.45493        19.44595         1.50289
C         29.64532        18.62061         1.35565
C         30.73372         2.08640         1.01623
C         30.76726         3.51856         1.17524
C         31.89675         1.40495         0.58853
C         32.00409         4.21665         0.99068
C         30.77154         6.35461         1.28538
C         30.74412         7.77772         1.22248
C         32.00029         5.66235         1.01599
C         31.85522         8.43791         0.63786
C         30.77215        10.60277         1.07509
C         31.18623        11.90417         1.49666
C         31.74039         9.81327         0.34758
C         32.17143        12.73530         0.93721
C         30.70794        15.12299         2.12607
C         30.82730        16.45570         1.61351
C         32.54031        14.00922         1.50148
C         32.09488        17.06864         1.35070
C         30.92173        19.22528         1.37248
C         32.12888        18.48706         1.22588
C         33.09759         2.09761         0.32493
C         33.16454         3.50737         0.60172
C         34.23575         1.42887        -0.18752
C         34.45481         4.18012         0.46637
C         33.14780         6.38382         0.61115
C         33.05775         7.76109         0.26742
C         34.45013         5.73848         0.48459
C         34.14667         8.45103        -0.35894
C         32.68398        10.35091        -0.55154
C         32.85515        12.42453        -0.28217
C         33.95259         9.79713        -0.80629
C         34.12759        12.92305        -0.53603
C         33.42907        14.83780         0.86047
C         33.25970        16.33049         0.69276
C         34.41789        14.21109         0.01441
C         34.60731        17.01839         0.76880
C         33.37033        19.16177         0.93316
C         34.58039        18.50216         0.68824
C         35.42700         2.11536        -0.53257
C         35.56381         3.52287        -0.25295
C         36.50528         1.43385        -1.13238
C         36.70559         4.22801        -0.64013
C         35.53832         6.43417        -0.20944
C         35.37382         7.73256        -0.63519
C         36.86592         5.70951        -0.29065
C         36.43185         8.39583        -1.45084
C         35.01301        10.59798        -1.47116
C         35.10731        12.18511        -1.35269
C         36.26424         9.83751        -1.84739
C         36.43094        12.83898        -1.42969
C         35.59089        14.88908        -0.31151
C         35.79352        16.25434         0.24030
C         36.61745        14.17967        -1.02682
C         37.07258        16.98781        -0.13429
C         35.73784        19.16765         0.22112
C         36.88161        18.49703        -0.27709
C         37.68479         2.11302        -1.47883
C         37.79199         3.52704        -1.25406
C         38.78497         1.40861        -2.06216
C         38.99260         4.19635        -1.63316
C         37.88914         6.42160        -1.15442
C         37.76830         7.73463        -1.55895
C         39.12324         5.65354        -1.42764
C         38.86718         8.44007        -2.20514
C         37.48805        10.62967        -2.26313
C         37.61248        12.04638        -1.76843
C         38.77624         9.89083        -2.51417
C         38.93473        12.78558        -1.99330
C         37.80853        14.90437        -1.40020
C         37.68255        16.41368        -1.42676
C         38.89775        14.26365        -1.97514
C         38.97458        17.12218        -1.75237
C         37.91605        19.19541        -0.89058
C         39.02556        18.52277        -1.52121
C         39.92001         2.07640        -2.44414
C         40.03268         3.48805        -2.26213
C         41.14109         4.19062        -2.87104
C         40.27635         6.36832        -2.11560
C         40.09733         7.80902        -2.43378
C         41.21672         5.54458        -2.89382
C         41.21725         8.54184        -2.91251
C         40.03710        10.65929        -2.70388
C         40.01661        12.08908        -2.71817
C         41.20066         9.92774        -2.99855
C         41.01137        12.87939        -3.30570
C         40.00311        14.99516        -2.54019
C         40.05282        16.45020        -2.36599
C         41.00910        14.28238        -3.20298
C         41.18594        17.20600        -2.75028
C         40.16230        19.24803        -1.94211
C         41.22798        18.58558        -2.54828
O         17.22028        18.03848        -0.49995
O          6.26620         4.03481         1.34749
O         37.84890        10.34207        -3.63398
O         40.30439         6.08537        -0.67330
O         27.92007        10.21520         3.46820
O         19.59056         8.09711        -0.60205
O          3.76948         9.06852        -4.00202
O         34.86569         4.95033         1.65143
O         13.93446        14.72457         2.51527
O         27.26055        18.03764         0.03497
O         21.13708        12.69791         3.00493
O          8.23680        11.07691         1.55970
O         31.85734        14.51071         2.61829
O         16.76080        14.79275         2.50540
O          7.44513        14.66595         1.52776
O         21.73879        16.66368        -0.62078
O         35.53507        16.38917         1.69855
O         32.28986        11.53384        -1.19637
O         21.92342         4.97820         3.22806
O         10.82093        15.96284         1.81748
O         34.61249        11.50016        -2.54113
O         14.09269         8.04209         1.96662
O         24.00616        12.80843         3.42303
O         10.11682        17.89178        -1.18298
O         35.93862         8.77362        -2.79173
O         38.63374        12.14942        -0.70396
O         13.51733         2.57295         1.89830
O          7.78343        17.86944        -1.55968
O         13.15688         5.96902        -1.06060
O         30.67244        12.31715         2.74267
O         17.38319         4.01627        -0.99106
H         18.17644         4.50604        -1.29826
O         23.11460        10.40792         3.82629
H         23.54972        11.14892         4.31023
O         36.72631        16.73311        -2.48177
H         37.09527        16.42281        -3.33491
O          8.58025         3.43789         2.26831
H          7.62721         3.43056         2.52441
O         17.20257         8.66963        -1.30436
H         18.13142         8.65041        -1.64160
O         38.03115        16.76928         0.91941
H         37.52714        16.76362         1.76473
O         32.89635        16.45759        -0.73277
H         32.00693        16.06656        -0.86518
O         37.42349         5.74455         1.05944
H         36.73179         5.36791         1.65736
O         18.55891        12.33206        -0.89925
H         17.88238        11.73237        -1.28285
O          4.60059        17.22357         0.64648
H          4.52060        16.31075         0.99873
H          0.69733         1.33252        -2.04852
H          0.78451         3.73916        -2.56256
H          2.67615         0.16207        -1.08103
H          1.17877         5.40002        -3.47385
H          1.69236         7.60293        -4.51150
H          1.72274        10.50358        -4.59966
H          1.21848        12.77201        -3.72465
H          0.83969        14.48565        -2.99778
H          0.77711        16.92881        -2.73304
H          1.83207        19.04072        -2.07839
H          5.06044         0.19114        -0.47829
H          3.81445        20.33271        -1.44915
H          7.47739         0.25441        -0.04495
H          5.96670        20.56150        -0.93444
H          9.84638         0.27959         0.12371
H          8.62374        20.77131        -0.04691
H         12.11752         0.15382         0.07195
H         11.18950        20.62184         0.50042
H         14.99573         0.31171        -0.10495
H         13.67204        20.51104         0.44715
H         17.31452         0.28155         0.69755
H         15.85647        20.44418         1.36964
H         19.73970         0.26552         1.19467
H         18.70394        20.38972         1.40728
H         22.19408         0.28539         1.54722
H         20.97980        20.34318         1.05837
H         24.64529         0.29226         1.59893
H         23.43637        20.35501         1.29634
H         27.07727         0.29652         1.49663
H         25.68469        20.42549         1.76865
H         29.49841         0.30084         1.09931
H         28.56030        20.38993         2.05836
H         31.85336         0.31877         0.42119
H         30.98084        20.32433         1.37090
H         34.17860         0.34581        -0.36962
H         33.34311        20.25849         0.83719
H         36.41849         0.35646        -1.33580
H         35.69828        20.26402         0.11413
H         38.69825         0.32284        -2.21185
H         37.89451        20.29661        -0.90959
H         40.75215         1.53491        -2.91682
H         41.87516         3.59315        -3.43208
H         41.98845         6.03749        -3.50215
H         42.16119         8.01329        -3.10074
H         42.13283        10.45758        -3.23874
H         41.82945        12.40072        -3.86189
H         41.84071        14.82538        -3.67208
H         42.05071        16.71134        -3.21236
H         40.20669        20.33367        -1.77531
H         42.11566        19.15181        -2.86314
