         720
 CSIRO Nanostructure Databank - Neutral Graphene Oxide Data Set
C         22.98629        27.41683        -0.73652
C         22.98976        28.71108        -1.18497
C         22.99318        31.57471        -1.76350
C         23.00189        32.95988        -1.73154
C         23.17966        35.59859        -0.49913
C         23.33398        36.79736         0.18478
C         23.51461        39.39605         1.54025
C         23.51233        40.70574         1.87337
C         23.52630        43.51148         2.83172
C         23.47030        44.84021         3.07140
C         25.37113        24.84356         0.54019
C         24.19134        25.46088         0.16689
C         25.44850        27.43116        -0.58364
C         24.20666        26.76349        -0.38304
C         25.44713        28.78342        -1.09209
C         24.21008        29.44129        -1.33344
C         25.44047        31.54771        -1.77400
C         24.20685        30.84594        -1.64521
C         25.45362        32.98695        -1.90849
C         24.21022        33.67688        -1.68570
C         25.45919        35.77924        -1.33398
C         24.25458        35.05203        -1.22741
C         25.57796        37.03652        -0.71574
C         24.53172        37.52125         0.11889
C         25.79356        39.64775         0.60290
C         24.75943        38.67197         1.09150
C         25.81931        40.97752         1.02835
C         24.67778        41.56139         1.73570
C         25.84374        43.73033         2.01756
C         24.66480        42.89470         2.16051
C         25.80404        45.10276         2.22851
C         24.49172        45.79461         2.50736
C         25.81179        47.79201         3.26832
C         24.68445        47.04967         3.32540
C         27.83381        23.67079         1.70280
C         27.91886        24.76239         0.65458
C         26.61479        25.49289         0.37227
C         27.95612        27.41850        -0.51477
C         26.65331        26.76931        -0.21253
C         27.96087        28.78802        -1.15919
C         26.66773        29.48228        -1.33341
C         27.90237        31.51300        -2.16526
C         26.66814        30.84438        -1.67010
C         27.85954        32.99518        -2.55198
C         26.63401        33.71099        -2.15530
C         27.86784        35.97073        -2.23111
C         26.51134        35.22631        -2.27385
C         27.93511        37.26988        -1.48309
C         26.81885        37.79273        -0.87734
C         27.99119        40.07926        -0.63247
C         26.76816        39.19818        -0.38706
C         28.18082        41.14947         0.35102
C         27.05413        41.72352         0.93718
C         28.22091        43.98638         1.26725
C         27.09861        43.05812         1.60436
C         28.13508        45.41174         1.60369
C         26.97959        45.95272         2.09867
C         28.08253        48.17899         2.24725
C         26.98595        47.36514         2.51662
C         28.16176        49.57453         2.62772
C         30.26323        23.71257         1.97020
C         28.95009        23.15351         2.26046
C         30.26502        25.16556         1.64846
C         29.03865        25.73217         1.00693
C         30.28913        27.77382         0.30766
C         29.14750        26.99798         0.25001
C         30.25506        29.16229        -0.22315
C         29.13132        29.65626        -0.99074
C         30.31446        31.92649        -1.41415
C         29.26157        30.85402        -1.91627
C         30.42816        32.98552        -2.52148
C         29.16701        33.72933        -2.99848
C         30.43531        36.11130        -2.59796
C         29.15170        35.28198        -2.65185
C         30.41931        37.40629        -2.15379
C         29.28931        37.97200        -1.29098
C         30.45197        40.25253        -1.27389
C         29.14068        39.50231        -1.48692
C         30.57517        41.33238        -0.46594
C         29.60459        41.48565         0.66222
C         30.50388        44.33657         0.31137
C         29.15528        43.76483         0.10673
C         30.57702        45.53501         0.94607
C         29.43820        46.15576         1.72099
C         30.56552        48.40769         1.52433
C         29.23328        47.63235         1.39273
C         30.56173        49.83962         1.95409
C         29.26625        50.35397         2.46990
C         32.63758        20.84169         2.09427
C         31.48738        21.56167         2.24889
C         32.64733        23.56391         1.34231
C         31.42407        22.96631         1.93229
C         32.69810        25.03368         1.05463
C         31.58291        25.91965         1.58252
C         32.75639        27.87926         0.59811
C         31.53718        27.24663         0.82857
C         32.80936        29.19624        -0.02515
C         31.55256        29.94363        -0.28811
C         32.79669        31.51147        -1.69788
C         31.60829        31.15160        -1.14619
C         32.85392        32.59438        -2.65203
C         31.58001        32.95996        -3.29607
C         32.88032        36.35871        -3.48573
C         31.44446        35.86294        -3.71079
C         32.88550        37.72784        -2.89918
C         31.55513        38.32636        -2.52802
C         32.92062        40.39807        -1.86215
C         31.60001        39.76123        -2.07310
C         32.95649        41.68664        -1.28134
C         31.84774        42.16781        -0.35165
C         32.90752        44.50993        -0.47474
C         31.65126        43.71197        -0.41201
C         33.07686        45.69344         0.43612
C         31.87757        46.21277         1.15504
C         33.15831        48.39559         1.65699
C         31.85822        47.63141         1.65568
C         33.10502        49.85309         1.78804
C         31.88148        50.48853         2.42620
C         33.07913        52.66561         2.02387
C         31.92243        51.98133         2.19636
C         35.21104        19.26284         2.14237
C         35.10698        20.56550         1.37782
C         33.88209        21.44054         1.66215
C         35.13325        23.46998         0.87929
C         33.90330        22.78285         1.35726
C         35.19577        24.95945         0.80765
C         34.00508        25.71128         0.86324
C         35.25463        27.73535         0.42556
C         34.01441        27.11415         0.68668
C         35.25795        29.17575         0.12610
C         34.00891        29.75847        -0.39389
C         35.36718        31.49506        -1.85877
C         34.04883        30.68038        -1.59474
C         35.16874        33.05754        -1.83630
C         34.01203        33.30408        -2.78427
C         35.24939        36.07620        -2.66920
C         34.12382        35.57501        -3.27140
C         35.31980        37.51232        -2.37436
C         34.14620        38.27806        -2.36142
C         35.38407        40.35507        -1.99788
C         34.15486        39.68327        -2.07574
C         35.38052        41.87332        -1.94509
C         34.13209        42.42987        -1.31151
C         35.46925        44.58409        -0.73822
C         34.16095        43.85028        -0.95713
C         35.49329        45.87999        -0.02599
C         34.32526        46.50128         0.42225
C         35.60156        48.46691         1.11428
C         34.38313        47.76421         1.09038
C         35.67162        49.81169         1.74244
C         34.37857        50.55607         1.98460
C         35.58138        52.74742         1.85442
C         34.38799        52.03726         1.98063
C         35.58581        54.20576         1.74950
C         37.63512        19.20536         1.71516
C         36.40516        18.63315         2.24102
C         37.64935        20.53916         1.36061
C         36.39965        21.35935         1.64155
C         37.70870        23.39897         0.85031
C         36.40798        22.69856         0.93666
C         37.73431        24.89495         1.00000
C         36.44075        25.61180         0.67036
C         37.73988        27.68699         0.17013
C         36.47379        27.01294         0.45361
C         37.78764        29.05873        -0.17971
C         36.55071        29.87421        -0.17475
C         37.71947        31.85597        -1.16704
C         36.50372        31.11469        -0.95602
C         37.68627        33.16456        -1.88276
C         36.48718        33.79483        -2.15470
C         37.80207        36.00033        -2.25680
C         36.50164        35.24074        -2.55727
C         37.79943        37.46500        -1.96182
C         36.57278        38.17430        -2.10475
C         37.83999        40.24656        -1.72177
C         36.59479        39.59884        -1.98808
C         37.83164        41.72310        -1.72619
C         36.59679        42.33026        -1.10968
C         37.90846        44.40181        -0.44792
C         36.71088        43.80984        -0.81246
C         37.95313        45.79037        -0.08421
C         36.76511        46.49966         0.17001
C         38.01395        48.60433         0.52243
C         36.79687        47.86770         0.62090
C         37.91939        50.10677         0.57263
C         36.99789        50.57061         1.70109
C         38.03092        52.81721         1.49087
C         36.86576        52.08889         1.65967
C         38.05507        54.24129         2.01059
C         36.72929        54.91805         1.75841
C         39.89624        16.19159         1.20925
C         38.85210        16.93585         1.59685
C         40.01164        19.04063         0.90201
C         38.94341        18.43054         1.79091
C         40.06350        20.52553         0.84514
C         38.84940        21.22193         0.93051
C         40.07675        23.27518         0.09151
C         38.84803        22.65482         0.71433
C         40.15275        24.76965         0.27335
C         38.97582        25.53002         0.43165
C         40.18455        27.58377        -0.14557
C         38.96001        26.93866         0.17534
C         40.19548        28.90901        -0.59843
C         38.98514        29.64998        -0.63017
C         40.20568        31.53251        -1.84967
C         39.03701        31.08180        -0.99330
C         40.25822        33.05963        -2.02124
C         38.97947        33.84643        -1.94440
C         40.26060        36.00297        -1.78689
C         39.00532        35.21749        -1.92219
C         40.11394        37.28097        -0.97467
C         38.95859        38.12574        -1.49257
C         40.09065        40.27350        -0.53102
C         38.98827        39.54320        -1.34999
C         40.23854        41.79495        -0.84997
C         39.09796        42.44239        -1.60770
C         40.32197        44.53225        -1.14325
C         39.17901        43.65187        -0.71417
C         40.34962        45.97760        -0.75958
C         39.27695        46.46350         0.18645
C         40.42806        48.70977         0.03338
C         39.21653        47.97464         0.19699
C         40.44010        50.12676         0.31435
C         39.25902        50.79632         0.68167
C         40.43978        52.93240         0.82550
C         39.26884        52.18319         1.03014
C         40.37290        54.44782         0.77907
C         39.25199        55.06583         1.58999
C         40.53653        57.16370         1.66494
C         39.35855        56.36925         1.95723
C         42.41091        16.25829         1.45481
C         41.21177        16.72083         0.67645
C         42.52894        18.95880         0.22563
C         41.20038        18.24150         0.49556
C         42.55733        20.37247         0.86087
C         41.30625        21.17636         0.61736
C         42.61165        23.22821         0.20823
C         41.37009        22.55303         0.38570
C         42.62445        24.64353         0.02502
C         41.40868        25.38477         0.09220
C         42.68794        27.49307        -0.32709
C         41.45557        26.87885         0.25030
C         42.68755        28.84548        -0.65264
C         41.45953        29.59303        -0.86243
C         42.77986        31.59197        -1.42358
C         41.48786        30.88760        -1.34020
C         42.87271        33.07194        -1.67135
C         41.58175        33.79854        -2.00549
C         42.78325        35.96750        -1.31974
C         41.57092        35.28923        -1.83013
C         42.71287        37.35942        -1.14393
C         41.44324        38.04218        -0.80239
C         42.78295        40.33161        -0.51271
C         41.45671        39.52846        -0.54376
C         42.76431        41.70974        -1.12737
C         41.57529        42.40685        -1.18017
C         42.80010        44.55215        -1.34284
C         41.59465        43.82872        -1.32212
C         42.81063        45.98381        -1.10891
C         41.64090        46.67103        -0.73853
C         42.85756        48.78442        -0.43940
C         41.64733        48.05182        -0.35347
C         42.85455        50.17406        -0.13886
C         41.67995        50.85105         0.24564
C         42.83824        53.04391         0.19983
C         41.67329        52.28990         0.44236
C         42.79819        54.52081         0.24916
C         41.72693        55.05928         1.17706
C         42.92894        57.29566         1.03135
C         41.69072        56.57049         1.24391
C         43.59082        16.92557         1.38728
C         44.96673        18.89643         0.75972
C         43.74354        18.22253         0.78367
C         45.01882        20.32951         0.48676
C         43.83571        21.08369         0.46950
C         45.09665        23.13793        -0.01049
C         43.85894        22.48536         0.22972
C         45.13544        24.57677        -0.24456
C         43.88402        25.32571        -0.19312
C         45.11699        27.40569        -0.78940
C         43.87996        26.71328        -0.39817
C         45.18033        28.85434        -0.56091
C         43.93663        29.56145        -0.65765
C         45.05949        31.70539        -0.31372
C         43.92144        30.93929        -0.77558
C         45.10026        33.16134        -0.47718
C         44.02879        33.82158        -1.07046
C         45.12874        35.99625        -0.53224
C         43.97552        35.24957        -1.08320
C         45.28849        37.39150        -0.99969
C         43.94482        38.14065        -1.20553
C         45.22188        40.24106        -1.05060
C         43.99094        39.56482        -0.98679
C         45.21935        41.66696        -1.20089
C         44.01511        42.39325        -1.32144
C         45.25500        44.55995        -1.45802
C         44.03428        43.83363        -1.44091
C         45.26424        45.96357        -1.25748
C         44.06789        46.66858        -1.06236
C         45.27270        48.80753        -0.97823
C         44.09333        48.10470        -0.80879
C         45.26339        50.27396        -0.93024
C         44.13180        50.90297        -0.18859
C         45.32660        53.16758        -0.48599
C         44.13407        52.40496        -0.02913
C         45.30024        54.69762        -0.60481
C         44.01631        55.34320        -0.05522
C         44.03362        56.72539         0.49123
C         47.41812        18.85486         0.80724
C         46.22081        18.21808         0.96221
C         47.50125        20.26262         0.50852
C         46.28055        20.99268         0.36114
C         47.58282        23.05198        -0.00588
C         46.31550        22.38992         0.07432
C         47.60360        24.39699        -0.70016
C         46.35484        25.21109        -0.45958
C         47.66646        27.40631        -0.65511
C         46.41726        26.63685        -0.81945
C         47.64715        28.78798        -0.53493
C         46.39617        29.51240        -0.46485
C         47.63151        31.74617        -0.18295
C         46.39124        30.94003        -0.12233
C         47.59712        33.13865        -0.05017
C         46.26601        33.81084         0.28190
C         47.59688        36.07921         0.38280
C         46.28893        35.32738         0.12279
C         47.63364        37.49273        -0.16392
C         46.47884        38.15793        -0.61669
C         47.69179        40.29186        -0.68181
C         46.47531        39.54583        -0.88429
C         47.72772        41.65355        -0.98823
C         46.50360        42.32396        -1.45303
C         47.82775        44.56753        -1.58750
C         46.51384        43.83670        -1.68052
C         47.82374        46.01290        -1.39108
C         46.55295        46.71925        -1.00906
C         47.81093        48.88757        -1.30632
C         46.50182        48.14261        -1.55750
C         47.81842        50.34835        -1.28528
C         46.51506        51.06544        -1.15405
C         47.72969        53.30114        -1.04453
C         46.48234        52.51807        -0.81378
C         47.75054        54.62086        -0.35402
C         46.60045        55.24196        -0.05165
C         50.01445        20.24751         0.44998
C         48.74085        20.95032         0.46957
C         49.99819        23.14366         0.72827
C         48.75961        22.36584         0.30261
C         50.15004        24.46867        -0.01329
C         48.94461        25.15167        -0.58748
C         50.04876        27.38650        -0.02098
C         48.98697        26.67346        -0.83621
C         50.04868        28.86430        -0.13763
C         48.87746        29.56406        -0.31917
C         50.05230        31.75935        -0.01840
C         48.86229        31.02464        -0.21710
C         50.06787        33.17725        -0.00998
C         48.82400        33.89150        -0.03773
C         50.07456        36.03288         0.08255
C         48.85118        35.31080         0.04308
C         50.09094        37.46897         0.15980
C         48.85465        38.20534        -0.02683
C         50.09437        40.34903         0.01700
C         48.87201        39.61325        -0.19936
C         50.13901        41.69496        -0.26642
C         48.87648        42.47967        -0.48496
C         50.24913        44.60734        -0.73197
C         49.08518        43.81560        -1.17126
C         50.21371        45.99785        -0.84756
C         49.00753        46.70951        -1.19173
C         50.27361        48.88413        -1.13482
C         48.99483        48.17700        -1.19497
C         50.27623        50.30309        -1.69743
C         48.99325        51.05501        -1.35680
C         50.31760        53.21310        -1.19685
C         49.00562        52.54320        -1.35900
C         51.20816        20.88544         0.43672
C         52.61880        23.08684         0.56982
C         51.31519        22.33809         0.69452
C         52.56676        24.58359         0.50893
C         51.39413        25.23743         0.31678
C         52.56945        27.47906         0.46107
C         51.29645        26.70842         0.47328
C         52.55002        28.81577         0.23408
C         51.26385        29.54287         0.31487
C         52.56879        31.75717         0.43237
C         51.26285        31.03478         0.39965
C         52.55089        33.21711         0.26353
C         51.31598        33.89831         0.13270
C         52.53090        36.03522         0.41336
C         51.31730        35.32478         0.14786
C         52.51216        37.45222         0.53754
C         51.31560        38.16382         0.34698
C         52.55849        40.44348         0.84413
C         51.21647        39.62119         0.76062
C         52.67952        41.66060        -0.05605
C         51.42484        42.40651        -0.40135
C         52.65290        44.54163        -0.16783
C         51.45098        43.88242        -0.41196
C         52.62983        46.01900        -0.03207
C         51.36396        46.78529        -0.38426
C         52.68837        48.95611        -0.51691
C         51.41661        48.22503        -0.76607
C         52.82108        50.38034        -0.95117
C         51.57718        51.08849        -1.43191
C         51.48626        52.55701        -1.27881
C         55.04649        23.16965         0.09972
C         53.88676        22.48250         0.07336
C         55.13167        24.53865         0.67315
C         53.83513        25.28706         0.84659
C         55.06765        27.37212         0.00915
C         53.88874        26.82596         0.84198
C         55.03837        28.82471        -0.37309
C         53.71369        29.58287        -0.35247
C         55.02870        31.79056        -0.33803
C         53.83164        31.00582         0.15496
C         55.03080        33.18445         0.25283
C         53.79066        33.90402         0.37002
C         54.96464        36.01794         0.92584
C         53.76504        35.32306         0.57574
C         54.98286        37.40309         1.13072
C         53.68301        38.16654         1.18568
C         55.04992        40.25557         0.72297
C         53.82127        39.61303         0.78214
C         55.12971        41.70803         0.49249
C         53.92120        42.43917         0.16734
C         55.10543        44.61811         0.42476
C         53.88485        43.82061         0.04369
C         55.17884        45.94565        -0.31592
C         53.91704        46.72174        -0.33030
C         55.28306        48.89644        -0.33623
C         53.96484        48.20766        -0.24416
C         55.20613        50.35161        -0.26033
C         54.06107        51.04879        -0.46705
C         57.63573        24.72042         0.89249
C         56.40227        25.33296         0.59486
C         57.56652        27.45234         0.18816
C         56.37757        26.71464         0.28030
C         57.59148        28.82792        -0.44431
C         56.29388        29.62158        -0.27516
C         57.56515        31.66939         0.35107
C         56.29146        30.97041        -0.08545
C         57.50226        33.17700         0.40263
C         56.24666        33.83333         0.49160
C         57.50388        35.90583         1.29357
C         56.19825        35.20296         1.04757
C         57.46758        37.38393         1.56120
C         56.21188        38.14027         1.27518
C         57.62434        40.16829         0.76334
C         56.26569        39.50802         0.99069
C         57.60459        41.69003         0.76981
C         56.35436        42.38706         0.56573
C         57.57149        44.53421         0.52612
C         56.39957        43.83508         0.41821
C         57.58852        46.01601         0.41318
C         56.51257        46.66331        -0.44172
C         57.77794        48.80449        -0.39658
C         56.46304        48.18244        -0.31516
C         58.80280        25.46936         0.93203
C         59.96885        27.64116         0.68583
C         58.79278        26.84633         0.58402
C         59.94444        29.02061         0.41549
C         58.82343        29.63610        -0.11161
C         60.00732        31.89563        -0.19918
C         58.75489        31.10524        -0.46719
C         59.97231        33.16492         0.25396
C         58.73216        33.88965         0.53151
C         59.93291        36.08941         0.79837
C         58.75494        35.26603         0.85335
C         59.96278        37.39604         1.19441
C         58.76772        38.11403         1.69042
C         60.01539        40.34001         1.51406
C         58.69276        39.65235         1.75606
C         60.02873        41.64006         1.15872
C         58.79600        42.37154         0.91604
C         60.07658        44.55993         0.50341
C         58.83334        43.88133         1.04534
C         60.12144        45.88891         0.30475
C         58.90888        46.73245         0.37578
C         58.92126        48.11033        -0.17078
O         46.51434        42.92318        -2.81128
O         52.23996        41.66593        -1.43576
O         29.26727        25.90484         2.44585
O         44.81903        37.66678        -2.31627
O         45.22377        35.92213         0.95550
O         34.76922        44.65947        -2.05477
O         44.51436        51.48760         1.09306
O         49.91641        24.44195        -1.45499
O         32.34769        24.13198        -0.02463
O         30.02451        41.72206         1.78338
O         32.81053        45.32973         1.84834
O         32.55762        47.75377         2.92482
O         32.41439        41.91198         0.89799
O         54.44085        46.09969        -1.56992
O         38.51173        42.33220        -2.90771
O         26.81420        40.21277        -1.46660
O         48.21582        53.21132        -2.41650
O         53.46563        31.27822         1.51361
O         58.10989        37.56760         2.88327
O         41.05203        36.04490        -2.99697
O         28.17872        27.56261        -1.97164
O         30.61952        49.48526         0.52362
O         52.60928        50.63242        -2.38626
O         50.19390        27.03958         1.39353
O         42.91298        55.18885        -1.04344
O         50.75699        39.44302         2.10060
O         54.92242        27.75282        -1.39496
O         51.77433        46.52449         1.01468
O         45.68681        26.96265        -2.07116
O         35.90572        30.00064         1.17462
O         40.98946        33.37902        -3.25967
O         34.07331        34.27352        -3.77126
O         31.03811        35.57970        -4.81628
O         28.76536        43.35678        -0.98220
O         39.75413        42.68498         0.31953
O         30.70843        30.13065         0.89947
O         27.64930        31.90752        -3.54148
O         53.16342        48.75031         0.85649
O         41.51450        38.58628         0.58247
O         56.80953        35.20437         2.38731
O         45.52732        31.24015         1.00007
O         31.94864        44.52930        -1.59304
O         35.68238        22.79609        -0.34155
O         28.35052        36.03936        -3.63015
O         54.15298        27.27430         2.14333
O         45.56557        50.81830        -2.27747
O         28.26023        43.19322         2.50502
O         43.21492        32.14427        -2.74451
O         37.40187        35.62308        -3.63270
O         35.14306        49.87636         3.10624
O         58.07922        46.67551         1.61630
O         54.49430        24.66776         1.98719
O         39.93097        45.56165        -2.10048
O         52.15158        22.59634         1.88473
O         51.04168        30.23439         1.60523
O         40.14415        18.54413        -0.48779
O         33.04408        37.52476        -4.35679
O         48.77651        44.01303        -2.56411
O         38.59782        31.97805         0.04572
O         31.22813        39.40966        -3.44841
O         33.96587        29.71308        -2.70331
H         33.02165        29.50499        -2.87058
O         31.98568        50.27089         3.85932
H         32.24008        49.32299         3.98544
O         42.61327        20.13922         2.30144
H         42.69824        21.00693         2.74891
O         37.86364        25.08228         2.47278
H         37.70980        26.03327         2.66408
O         29.82924        46.09812         3.11517
H         29.97588        45.15818         3.35811
O         46.62557        46.88933         0.44518
H         46.72705        46.00729         0.86080
O         41.34888        16.15695        -0.65785
H         40.70716        16.63711        -1.22698
O         28.82571        47.69841         0.01458
H         29.06046        48.59820        -0.31112
O         28.32945        24.14576        -0.59862
H         27.59189        23.59182        -0.92825
O         29.81586        32.50403        -0.19570
H         29.99905        31.84906         0.52481
O         49.73198        23.49070         2.10762
H         50.58842        23.41614         2.59490
O         28.77168        39.65821        -2.85944
H         28.52829        40.59264        -3.02341
O         39.70673        36.81522         0.33537
H         39.87678        37.55730         0.96307
O         23.95649        46.24474         1.21333
H         23.84332        45.45071         0.64912
O         29.67460        37.78248         0.09273
H         29.76174        36.82415         0.27833
O         35.03286        20.20052        -0.01725
H         35.08894        21.03744        -0.54183
O         58.04668        39.72444        -0.56168
H         57.48953        40.18043        -1.22711
O         39.95607        30.97375        -3.16201
H         40.52163        31.47629        -3.79389
O         52.58116        41.05498         2.16344
H         51.85428        40.57776         2.66842
O         25.92737        35.43901        -3.59406
H         26.66954        35.61571        -4.21905
O         48.42796        42.89716         0.87116
H         48.53270        42.12674         1.47288
O         53.33537        29.75124        -1.76564
H         53.57444        28.90280        -2.21249
O         39.43176        18.64995         3.15329
H         38.76065        18.29822         3.77512
O         29.74309        30.33667        -3.17782
H         29.15526        30.70089        -3.88257
O         34.73186        33.46186        -0.52072
H         35.39416        33.15203         0.13499
O         57.67062        28.58940        -1.89345
H         57.72838        29.48430        -2.30930
O         39.85436        23.08127        -1.35268
H         40.66477        23.37596        -1.82040
O         46.07132        33.57651         1.69595
H         45.36585        34.19173         1.99516
O         31.95404        26.23110         2.95151
H         31.15769        26.61655         3.37996
O         43.01425        40.61817         0.90829
H         42.82279        39.78172         1.39308
O         25.31825        38.01835         2.28876
H         25.46882        38.71598         2.96189
O         50.19625        50.13051        -3.14059
H         51.12103        50.05911        -3.47244
O         46.31607        48.09889        -2.98969
H         46.18758        49.02739        -3.29316
O         41.57914        27.10576         1.71055
H         40.81702        26.65975         2.13892
O         56.98479        46.40019        -1.79757
H         56.19286        46.43918        -2.38319
O         37.68968        50.25586         2.93283
H         37.00310        50.19447         3.63678
O         29.13517        33.68764        -4.44433
H         28.70244        34.51261        -4.76470
O         39.57422        40.18983         0.81243
H         40.14072        40.74590         1.38937
O         45.32734        55.00085        -2.02115
H         44.39871        54.95057        -2.34387
O         54.91167        45.02669         1.81664
H         54.86546        44.21860         2.37106
O         58.42037        31.24126        -1.87923
H         59.25575        31.30439        -2.38757
O         53.27003        38.20934         2.59952
H         52.34469        38.59430         2.62113
O         31.68735        33.29760        -4.57864
H         30.78360        33.51737        -4.93201
O         49.36173        26.88336        -2.22126
H         48.71088        26.40862        -2.78149
O         36.45726        41.68979         0.18702
H         37.30480        41.77365         0.67647
O         42.69247        19.07579        -1.19725
H         41.79156        19.07969        -1.59236
O         36.40799        21.66042         3.06510
H         37.22285        22.16760         3.26713
O         54.91576        31.96679        -1.77688
H         54.47869        31.15725        -2.14298
O         58.28805        40.04735         3.07620
H         57.99141        39.23214         3.55090
O         57.84912        31.24765         1.71277
H         57.17405        31.63428         2.31078
O         38.18985        54.12338         3.47098
H         37.46627        53.54108         3.78738
O         35.51473        42.35775        -3.29403
H         35.33602        43.32980        -3.27776
O         37.29557        50.54351        -0.67202
H         37.82909        50.19927        -1.41909
O         39.73007        46.04481         1.51339
H         39.09757        46.39524         2.17557
O         42.07157        54.58220         2.49807
H         41.35391        54.84628         3.11288
O         47.48869        24.05278        -2.12469
H         48.37710        23.72561        -2.39990
O         35.82846        31.24940        -3.20703
H         35.44682        30.38988        -3.50421
O         40.13854        54.78486        -0.61485
H         39.26469        54.42777        -0.87642
O         58.83017        44.14544         2.48695
H         58.63819        45.11020         2.59279
O         47.67548        36.23864         1.83094
H         46.76352        36.42395         2.15043
H         22.03833        26.87380        -0.61392
H         22.03198        29.19199        -1.42184
H         22.02755        31.05372        -1.77500
H         22.04490        33.49853        -1.70192
H         22.23669        35.04435        -0.40263
H         22.50474        37.14832         0.81186
H         22.59745        38.81473         1.70954
H         22.58189        41.14513         2.26048
H         22.70779        42.86934         3.18777
H         22.59704        45.26596         3.58892
H         25.32930        23.82819         0.95663
H         23.23058        24.94376         0.29958
H         25.85727        48.73933         3.82616
H         23.82469        47.41053         3.91093
H         26.86277        23.21055         1.93385
H         27.27432        50.03222         3.09100
H         28.87500        22.27770         2.92309
H         29.23458        51.39530         2.82374
H         32.61992        19.76709         2.32087
H         30.57916        21.05727         2.60751
H         33.01847        53.75721         1.90775
H         30.97469        52.53995         2.22370
H         34.30850        18.77186         2.53371
H         34.62879        54.73348         1.63616
H         36.45743        17.64953         2.73318
H         36.69578        56.01464         1.67836
H         39.77923        15.09728         1.15482
H         37.91995        16.43286         1.89954
H         40.49063        58.25159         1.82038
H         38.53837        56.85449         2.50723
H         42.34922        15.30336         1.99670
H         42.95858        58.35445         1.33219
H         44.46012        16.49998         1.91122
H         44.94304        57.32985         0.36321
H         48.34422        18.28024         0.94486
H         46.21689        17.14283         1.18864
H         48.71229        55.04548        -0.02932
H         46.61439        56.19055         0.50465
H         50.00450        19.15287         0.35102
H         50.32101        54.30982        -1.12108
H         52.14037        20.30556         0.37497
H         52.43040        53.11879        -1.23250
H         55.96504        22.71474        -0.30174
H         53.86564        21.45679        -0.32446
H         56.12166        50.90513        -0.00541
H         54.08170        52.14654        -0.40725
H         57.66195        23.65090         1.14383
H         57.84274        49.86160        -0.69394
H         59.75078        24.99973         1.23123
H         60.90229        27.17335         1.03013
H         60.85390        29.60863         0.60786
H         60.97870        31.43790        -0.44357
H         60.92423        33.69300         0.40692
H         60.86473        35.64986         0.41470
H         60.90153        37.95556         1.07704
H         60.94957        39.84442         1.81537
H         60.98551        42.17942         1.11999
H         61.00034        43.97601         0.38145
H         61.05334        46.36761        -0.03495
H         59.89774        48.59956        -0.30696
