         424
 CSIRO Nanostructure Databank - Neutral Graphene Oxide Data Set
C          1.20523         3.45382         0.69359
C          0.01048         4.12897         0.52673
C          1.17328         6.28321         0.49335
C         -0.00897         5.52985         0.41991
C          1.17579         7.73350         0.32302
C         -0.00386         8.44017         0.05790
C          1.19872        10.55183        -0.14144
C          0.00598         9.82098        -0.14937
C          1.19996        12.00284        -0.32548
C         -0.01140        12.73539        -0.37232
C          1.20015        14.81399        -0.75936
C         -0.00993        14.09747        -0.59697
C          1.20302        16.24288        -0.98330
C         -0.00148        16.96935        -1.14434
C          1.20247        19.09126        -1.13144
C         -0.00301        18.34713        -1.22505
C          1.18998        20.53603        -1.05520
C         -0.01450        21.26288        -0.94780
C          1.18017        23.38094        -0.70104
C         -0.01906        22.63667        -0.75638
C          1.17662        24.81304        -0.49003
C         -0.00168        25.50998        -0.15032
C          1.16525        27.65016        -0.07387
C         -0.00312        26.89161         0.04860
C          1.15065        29.11398        -0.01153
C         -0.07453        29.85706         0.05901
C          1.11112        31.99348         0.22124
C         -0.07017        31.23641         0.26454
C          1.15503        33.40094         0.54646
C         -0.05285        34.17787         0.67735
C          1.20031        36.20996         1.20566
C         -0.01263        35.53340         0.94935
C          1.25709        37.61432         1.33784
C          3.65506         3.49192         0.92628
C          2.42898         4.17550         0.78542
C          3.63568         6.33986         0.84408
C          2.41058         5.60752         0.70307
C          3.63763         7.78651         0.66991
C          2.40974         8.45650         0.37252
C          3.67148        10.56097         0.05398
C          2.42850         9.85673         0.09229
C          3.69493        11.92186        -0.59096
C          2.41500        12.70238        -0.45106
C          3.69088        14.81420        -0.77186
C          2.42929        14.10216        -0.66373
C          3.67197        16.23905        -0.90475
C          2.43976        16.95247        -1.00188
C          3.66815        19.12352        -0.98220
C          2.43242        18.38710        -1.05520
C          3.64592        20.54357        -1.02801
C          2.42944        21.25147        -1.01574
C          3.62481        23.43464        -0.95462
C          2.42007        22.69612        -0.88646
C          3.60706        24.83787        -0.86087
C          2.40110        25.54118        -0.60266
C          3.60747        27.68979        -0.37388
C          2.40618        26.97392        -0.37751
C          3.64153        29.08090         0.19610
C          2.35091        29.81238        -0.05999
C          3.64077        31.92499         0.13275
C          2.34612        31.29792        -0.30228
C          3.63013        33.27276         0.68999
C          2.38461        34.03690         0.77698
C          3.71756        36.17617         1.09964
C          2.45233        35.40232         1.42048
C          3.71278        37.60634         1.22190
C          2.46294        38.29187         1.40109
C          6.10853         3.52492         1.15634
C          4.86722         4.20081         1.05150
C          6.07429         6.35743         1.35183
C          4.82775         5.63760         1.07299
C          6.08781         7.87838         1.12846
C          4.83320         8.53115         0.71452
C          6.16983        10.68432         0.56180
C          4.85878         9.91868         0.39544
C          6.14892        12.05385        -0.09169
C          4.95715        12.72113        -0.33851
C          6.21495        14.87808        -0.82609
C          4.91495        14.12099        -0.61934
C          6.08577        16.31740        -0.46531
C          4.89900        16.98396        -0.74093
C          6.16094        19.11734        -0.81088
C          4.89264        18.42659        -0.79060
C          6.16415        20.52941        -1.38124
C          4.94190        21.29812        -0.84395
C          6.17007        23.46458        -1.08088
C          4.88860        22.72428        -1.40415
C          6.16546        24.86972        -0.99900
C          4.86567        25.58081        -1.07700
C          6.14648        27.74228        -0.49342
C          4.86555        27.07728        -0.79877
C          6.12520        29.14944        -0.28172
C          4.88083        29.84565        -0.18544
C          6.08474        32.03366        -0.44458
C          4.84467        31.24703        -0.08360
C          6.15788        33.41559         0.16216
C          4.95681        34.03684         0.75358
C          6.13928        36.23022         0.68002
C          4.91354        35.51404         0.83342
C          6.14592        37.64919         0.87855
C          4.92034        38.31376         1.12765
C          8.57931         3.53613         1.23613
C          7.34511         4.22124         1.22483
C          8.56544         6.37959         1.35685
C          7.35305         5.64924         1.28729
C          8.54248         7.82482         1.13716
C          7.38471         8.49364         0.82359
C          8.69314        10.56186         0.21700
C          7.37543         9.82350         0.09923
C          8.71924        11.95922        -0.24873
C          7.42857        12.67818        -0.61576
C          8.56085        14.86478         0.18101
C          7.44207        14.16641        -0.31753
C          8.47855        16.34261         0.44923
C          7.16346        17.10087         0.21907
C          8.63998        19.06718        -0.64952
C          7.31734        18.45610        -0.45588
C          8.67983        20.60752        -0.99633
C          7.41402        21.31929        -1.05441
C          8.64875        23.43536        -0.85467
C          7.39562        22.71581        -0.97113
C          8.64325        24.90495        -1.21585
C          7.35985        25.62124        -0.89794
C          8.62100        27.71775        -0.43499
C          7.37721        27.02911        -0.62914
C          8.61537        29.12237         0.12047
C          7.35334        29.87116        -0.17921
C          8.57268        31.99409        -0.28960
C          7.37283        31.27679        -0.23480
C          8.53134        33.47622        -0.57053
C          7.31100        34.13662         0.03444
C          8.57529        36.25191         0.30969
C          7.35282        35.55009         0.36236
C          8.58970        37.66044         0.60695
C          7.38432        38.33784         0.84357
C         11.03733         3.54106         1.24631
C          9.79652         4.24397         1.31833
C         11.10975         6.34617         1.71220
C          9.79177         5.67123         1.39333
C         11.10916         7.85179         1.48080
C          9.81699         8.57874         1.20444
C         11.09786        10.69615         0.77603
C          9.84953         9.96451         0.67009
C         11.12364        12.06219         0.59752
C          9.93893        12.77390         0.08430
C         11.06804        14.90439         0.69158
C          9.81253        14.21480         0.34471
C         11.09233        16.41048         0.64707
C          9.77740        17.12947         0.50501
C         11.06235        19.19752        -0.08531
C          9.84055        18.50276        -0.04985
C         11.07350        20.62375        -0.32752
C          9.90620        21.31819        -0.62845
C         11.10734        23.49698        -0.63258
C          9.85045        22.76602        -0.66641
C         11.09782        24.92543        -0.74407
C          9.88237        25.63927        -0.79925
C         11.12265        27.73474        -0.44488
C          9.86474        27.04068        -0.57461
C         11.16181        29.17426         0.02358
C          9.86562        29.91041        -0.18796
C         11.05206        32.07575        -0.48294
C          9.83097        31.29626        -0.30937
C         11.05173        33.46033        -0.43054
C          9.82117        34.18871        -0.25053
C         11.07164        36.27918         0.15715
C          9.81432        35.55542         0.03376
C         11.05223        37.68745         0.50977
C          9.83930        38.34856         0.68413
C         13.45515         3.49548         0.80323
C         12.26472         4.21226         1.06589
C         13.46731         6.33999         0.77990
C         12.30248         5.65029         1.09910
C         13.50259         7.80635         0.76274
C         12.36465         8.52669         1.09460
C         13.60010        10.67313         0.65571
C         12.37867        10.02417         1.25453
C         13.60073        12.07246         0.51753
C         12.36746        12.80617         0.61634
C         13.57376        14.93216         0.34412
C         12.35527        14.19245         0.50766
C         13.58609        16.36050         0.29329
C         12.35060        17.12325         0.34692
C         13.60579        19.25470         0.35864
C         12.31400        18.49659         0.16641
C         13.59782        20.67895        -0.13494
C         12.30182        21.41708         0.08941
C         13.54947        23.51221        -0.60526
C         12.31380        22.82223        -0.44926
C         13.54488        24.90941        -0.79126
C         12.33646        25.63081        -0.73790
C         13.60179        27.77512        -0.60816
C         12.32551        27.06464        -0.63701
C         13.58944        29.21981        -0.58818
C         12.37387        29.89808        -0.50038
C         13.63403        32.09673        -0.75710
C         12.30768        31.33096        -0.74910
C         13.60082        33.52952        -0.43212
C         12.30916        34.26717        -0.70534
C         13.52862        36.32868         0.11696
C         12.27950        35.64010        -0.07853
C         13.51044        37.74021         0.47346
C         12.29154        38.38365         0.64145
C         15.87683         3.45155         0.36801
C         14.66325         4.17016         0.56027
C         15.88533         6.29090         0.25299
C         14.67448         5.60761         0.50797
C         15.90321         7.73192         0.13540
C         14.72150         8.48063         0.38667
C         15.93057        10.61259        -0.09012
C         14.75611         9.92839         0.32503
C         15.97880        12.02731        -0.10561
C         14.79524        12.77367         0.19669
C         16.00149        14.89032        -0.15802
C         14.78879        14.19951         0.14294
C         15.99337        16.29618        -0.23102
C         14.81403        17.03312         0.02938
C         16.02268        19.17552        -0.19145
C         14.84165        18.48700        -0.02824
C         16.05083        20.61220        -0.37837
C         14.77499        21.33785        -0.40883
C         16.01100        23.46495        -0.75279
C         14.79779        22.78052        -0.62045
C         16.06327        24.89020        -0.77987
C         14.80864        25.64147        -1.13267
C         16.06185        27.76634        -0.59353
C         14.80328        27.08608        -0.71366
C         16.06838        29.19484        -0.48690
C         14.85001        29.92517        -0.60301
C         16.07522        32.04175        -0.30235
C         14.87727        31.34287        -0.54303
C         16.05417        33.48588        -0.10255
C         14.77028        34.20499        -0.15238
C         16.03792        36.40145         0.01041
C         14.73712        35.64301         0.03519
C         15.97229        37.79157         0.60369
C         14.74774        38.42461         0.71624
C         18.32179         3.40187         0.01032
C         17.07971         4.11813         0.15333
C         18.31964         6.23951        -0.11628
C         17.09475         5.55561         0.08576
C         18.33189         7.66897        -0.24082
C         17.11551         8.38759        -0.19407
C         18.40740        10.52351        -0.52035
C         17.08493         9.81890        -0.66136
C         18.41885        11.99218        -0.85467
C         17.18712        12.74441        -0.41393
C         18.47994        14.85304        -0.54266
C         17.21555        14.13656        -0.39965
C         18.50268        16.26008        -0.59092
C         17.21256        17.03525        -0.73907
C         18.54267        19.15340        -0.51402
C         17.31797        18.40247        -0.07013
C         18.51759        20.56059        -0.59819
C         17.25255        21.27162        -0.57285
C         18.53307        23.44799        -0.66174
C         17.27505        22.70406        -1.04578
C         18.52007        24.85722        -0.51689
C         17.27168        25.59071        -0.63180
C         18.51011        27.72727        -0.28863
C         17.27883        27.03222        -0.53586
C         18.51276        29.15408        -0.14406
C         17.29488        29.89051        -0.27404
C         18.52418        32.00203         0.09424
C         17.30281        31.31815        -0.16740
C         18.57099        33.50921        -0.00185
C         17.22246        34.15255         0.18300
C         18.40915        36.27817         1.01684
C         17.16771        35.57818         0.58748
C         18.40771        37.76356         1.04072
C         17.19747        38.44829         0.91654
C         19.50101         4.06599        -0.16479
C         20.74266         6.19905        -0.42237
C         19.53899         5.50265        -0.23347
C         20.76188         7.59657        -0.47863
C         19.58466         8.35018        -0.38856
C         20.83522        10.53483        -0.33713
C         19.59603         9.81534        -0.43031
C         20.86428        11.92062        -0.32757
C         19.70090        12.69286        -0.49730
C         20.92872        14.85703        -0.46196
C         19.71339        14.12432        -0.49844
C         20.93505        16.23704        -0.51683
C         19.72738        16.96837        -0.60587
C         20.92425        19.15485        -0.96113
C         19.74099        18.43217        -0.69390
C         20.92515        20.54481        -0.95569
C         19.73891        21.27479        -0.75524
C         20.94555        23.43992        -0.38399
C         19.74475        22.73256        -0.62071
C         20.93933        24.81448        -0.22384
C         19.73806        25.55654        -0.29218
C         20.91520        27.71814         0.12424
C         19.72904        27.00343        -0.15244
C         20.91542        29.09472         0.27551
C         19.72591        29.84557         0.15088
C         20.88614        32.00132         0.71763
C         19.71632        31.28647         0.29985
C         20.85904        33.35633         0.98849
C         19.71217        34.15362         0.76536
C         20.84872        36.28828         1.36540
C         19.69746        35.54110         1.04782
C         20.80330        37.68412         1.50937
C         19.62964        38.41497         1.33223
O         17.41633        35.74784         2.01560
O         11.13131        15.70256         1.93280
O          9.00230        16.85331         1.72441
O          4.80318        26.53184        -2.18404
O         10.39132         8.53470         2.58185
O          8.83938        19.57219        -2.01897
O          9.69969        12.27371        -1.31685
O          4.45693        33.35902         1.94668
O         12.94748        31.75928        -2.02220
O          6.00370         7.30774         2.47238
O          4.79580        22.64813        -2.84882
H          4.87812        23.55630        -3.20858
O          6.37687        10.89762         1.98576
H          5.58462        11.34089         2.35440
O         11.33816        29.10403         1.48830
H         10.45261        28.84562         1.85574
O         17.31505        22.60379        -2.52055
H         17.12129        23.49640        -2.87856
O          5.94468        32.24604        -1.88515
H          6.79077        32.65073        -2.20652
O         12.46825        10.27834         2.69796
H         11.69293         9.81932         3.10395
O         13.70754        19.36624         1.84818
H         14.62917        19.63158         2.05861
O         12.17969        21.58982         1.54663
H         12.51426        20.75644         1.96628
O          6.34630        14.90474        -2.30661
H          6.57962        13.97239        -2.56571
O         18.35304        12.03506        -2.36430
H         19.20921        11.67826        -2.68817
O          8.62467        28.92618         1.62908
H          8.24083        29.73799         2.02726
O          3.78896        11.62378        -2.03563
H          3.81796        12.48296        -2.50902
O          5.12913        21.44759         0.58881
H          5.11788        20.55422         0.99446
O          7.30965        12.45872        -2.09035
H          8.23751        12.51588        -2.43128
O          8.69606        24.90298        -2.70521
H          9.54541        24.48483        -2.96469
O          6.58702        17.38725         1.54162
H          7.35059        17.44271         2.16695
O         16.37927        36.56839        -1.40666
H         15.62834        37.02399        -1.84275
O          2.30416        31.49148        -1.78055
H          1.56524        30.94422        -2.12293
O         14.82929        25.69120        -2.62181
H         15.53539        26.32246        -2.87876
O         16.81704         9.74642        -2.11574
H         17.11871        10.61141        -2.49415
O         17.49779        18.14420         1.35873
H         17.76885        18.98240         1.78771
O          2.52654        35.14791         2.87938
H          3.26955        34.50815         3.00376
O          6.08484        20.39195        -2.81668
H          6.92724        19.97832        -3.10902
O         18.91308        33.79448        -1.42246
H         18.19560        33.41842        -1.97659
O          8.38195        33.59615        -2.04281
H          8.54477        34.53388        -2.28273
O         17.00374        17.27149        -2.15934
H         16.98215        16.40230        -2.61137
O          3.73399        28.92884         1.67066
H          2.89831        28.50935         1.96913
O          7.17566         9.53214        -1.30981
H          7.10384        10.39435        -1.78677
O         11.27877         6.14842         3.15389
H         10.72279         6.83466         3.59038
O         12.30965        34.49287        -2.16342
H         12.43916        33.60054        -2.56956
H          1.22378         2.35675         0.76081
H         -0.93421         3.57102         0.46354
H         -0.97705         6.02616         0.27162
H         -0.96766         7.91667         0.01080
H         -0.95238        10.32105        -0.34077
H         -0.97453        12.22541        -0.24152
H         -0.97304        14.62251        -0.63670
H         -0.96268        16.44150        -1.19580
H         -0.96390        18.86466        -1.34351
H         -0.97993        20.74106        -0.98181
H         -0.98747        23.14540        -0.66004
H         -0.94909        24.96793        -0.03227
H         -0.95369        27.38027         0.30198
H         -1.03652        29.32805         0.06289
H         -1.02703        31.72647         0.49583
H         -1.02323        33.70507         0.47576
H         -0.94633        36.11609         0.92489
H          0.31483        38.18348         1.34448
H          3.66511         2.39220         0.93862
H          2.47375        39.38708         1.49729
H          6.11812         2.42530         1.14529
H          4.91788        39.40696         1.25193
H          8.59298         2.43847         1.17427
H          7.40348        39.41972         1.04175
H         11.01812         2.44197         1.20243
H          9.83732        39.42258         0.92242
H         13.43622         2.39570         0.80544
H         12.27273        39.45059         0.90967
H         15.86071         2.35273         0.41939
H         14.70538        39.46296         1.07979
H         18.30213         2.30321         0.05765
H         17.17654        39.53186         1.11265
H         20.44493         3.50997        -0.26321
H         21.68400         5.63841        -0.51518
H         21.73042         8.09753        -0.61000
H         21.77665         9.98812        -0.20030
H         21.82991        12.41713        -0.15806
H         21.88886        14.32678        -0.41064
H         21.89804        16.76458        -0.48977
H         21.86703        18.62555        -1.15404
H         21.87245        21.07289        -1.13058
H         21.90020        22.90077        -0.31870
H         21.89630        25.32266        -0.04844
H         21.86844        27.18526         0.23438
H         21.86817        29.59583         0.48996
H         21.81457        31.45184         0.92039
H         21.75395        33.81320         1.43471
H         21.82482        35.78968         1.44126
H         21.73677        38.22006         1.73303
H         19.64873        39.51138         1.41317
