         486
 CSIRO Nanostructure Databank - Neutral Graphene Oxide Data Set
C          8.18672        19.20021        -0.03698
C          8.17367        20.52961         0.31351
C          6.96141        21.31235         0.14981
C          8.17087        23.40591         0.51430
C          6.95665        22.66550         0.27145
C          8.22191        24.75171         0.27234
C         10.78746        14.94191        -0.50024
C         10.74357        16.27915        -0.19029
C          9.44375        17.00881        -0.43893
C         10.59232        19.02667         0.77862
C          9.33607        18.34387         0.27228
C         10.56911        20.49523         0.88938
C          9.39600        21.19282         0.74358
C         10.68508        23.35237         0.68421
C          9.37744        22.67580         1.06492
C         10.67845        24.72952         0.39594
C          9.47259        25.47369         0.26969
C         10.72043        27.58763        -0.04044
C          9.50899        26.85851         0.01076
C         10.76908        28.96254        -0.21405
C         13.31404        10.75369        -1.24240
C         13.28629        12.08148        -0.82641
C         12.03716        12.82838        -0.77179
C         13.27758        14.96549        -0.35211
C         12.00542        14.16757        -0.48983
C         13.13015        16.13194         0.63271
C         11.91246        16.98511         0.32033
C         13.07871        18.90586         1.44157
C         11.88773        18.30396         0.69471
C         13.12057        20.46431         1.41560
C         11.83937        21.21841         1.17569
C         13.17702        23.32319         0.72413
C         11.89663        22.64744         0.79393
C         13.19569        24.67085         0.41547
C         11.95282        25.38281        -0.05614
C         13.24256        27.53430        -0.24287
C         12.00132        26.86980         0.33274
C         13.24949        28.86710        -0.50868
C         12.01729        29.65926        -0.33166
C         13.26228        31.79379        -0.50854
C         12.04891        31.04220        -0.31282
C         13.30318        33.14031        -0.27891
C         15.85648         7.96038        -1.90665
C         14.66135         8.60524        -1.82759
C         15.81957        10.65539        -0.90052
C         14.53602         9.93931        -1.19751
C         15.83639        12.15391        -0.68769
C         14.48650        12.76508        -0.42683
C         15.64053        14.73978         0.47025
C         14.48206        14.11242        -0.03044
C         15.66819        16.15576         0.70448
C         14.41563        16.92981         0.67970
C         15.62894        18.96737         1.32765
C         14.37597        18.24896         1.01644
C         15.66038        20.46695         1.41892
C         14.40133        21.21986         1.19917
C         15.70254        23.32618         0.87248
C         14.42673        22.58028         0.96798
C         15.69562        24.67757         0.58411
C         14.44179        25.50184         0.53998
C         15.74726        27.44780        -0.45047
C         14.46276        26.65272        -0.49340
C         15.76091        28.73994        -1.26793
C         14.38347        29.52912        -1.26074
C         15.69009        31.81602        -1.25807
C         14.36453        31.08294        -1.25224
C         15.75422        33.22802        -0.85262
C         14.56909        33.95267        -0.27135
C         15.66080        36.01971        -1.10172
C         14.51236        35.34999        -0.86126
C         18.31784         7.89575        -1.50368
C         17.12324         8.57101        -1.53982
C         18.25066        10.50438        -0.44348
C         17.13577        10.07983        -1.39500
C         18.14960        11.74923         0.39705
C         16.85314        12.50894         0.39850
C         18.12986        14.58724         1.13466
C         16.83967        13.94487         0.82598
C         18.09912        16.05160         1.52889
C         16.86497        16.77119         1.02456
C         18.19447        18.94241         0.88234
C         16.88866        18.24556         0.96366
C         18.27595        20.41170         1.19223
C         16.98970        21.18006         1.30202
C         18.16259        23.22550         0.54975
C         16.98086        22.61875         0.92432
C         18.23272        24.68707         0.44496
C         16.92769        25.46613         0.51707
C         18.19350        27.61107         0.04418
C         16.89417        26.84906        -0.04708
C         18.15473        28.98684        -0.58431
C         17.00399        29.58338        -0.98369
C         18.21131        31.83255        -0.97366
C         17.00308        31.04550        -1.27423
C         18.19390        33.19719        -0.94170
C         16.95113        33.91905        -0.88229
C         18.15061        36.07839        -0.90339
C         16.97179        35.38639        -0.91033
C         20.78543         7.85736        -1.24777
C         19.58626         8.51784        -1.17846
C         20.71817        10.33332         0.10410
C         19.61894        10.03240        -0.91607
C         20.63621        11.71662         0.88058
C         19.37414        12.45946         0.80875
C         20.59072        14.52025         1.51765
C         19.31904        13.84261         1.12919
C         20.65382        16.02466         1.38103
C         19.38975        16.77534         1.15495
C         20.65629        18.76953         0.42860
C         19.43325        18.11524         0.95238
C         20.64336        20.25108         0.19360
C         19.58963        21.13783         0.85282
C         20.66625        23.20039        -0.02999
C         19.35746        22.42498         0.03049
C         20.66666        24.54182        -0.22538
C         19.34411        25.28128        -0.40963
C         20.60839        27.45739        -0.53733
C         19.43861        26.80491        -0.31463
C         20.62855        28.88170        -1.07149
C         19.47521        29.72530        -0.50506
C         20.73034        31.81291        -0.64622
C         19.50639        31.10595        -1.18109
C         20.51716        33.16330        -0.02749
C         19.50662        33.94165        -0.91358
C         20.76848        35.99810        -0.84701
C         19.42835        35.40962        -0.43570
C         23.26949         7.82739        -1.05617
C         22.04350         8.48776        -0.88138
C         23.21140        10.31067         0.29562
C         22.03459         9.74783        -0.21254
C         23.20715        11.55464         1.18413
C         21.90457        12.33920         1.17659
C         23.19545        14.54823         1.70114
C         21.89151        13.75265         1.57601
C         23.14831        16.00296         1.33317
C         21.96748        16.65642         1.10328
C         23.23987        18.69664         0.07312
C         21.95012        17.99217         0.41891
C         23.24620        20.18595        -0.19328
C         21.94874        20.95644        -0.10016
C         23.25421        23.13451        -0.27345
C         21.96190        22.45245         0.06534
C         23.20849        24.53629        -0.80317
C         21.89778        25.25290        -0.66413
C         23.17932        27.46609        -0.37947
C         21.89558        26.72636        -0.43717
C         23.21469        28.93636        -0.65559
C         21.95165        29.67895        -0.94048
C         23.13364        31.86814        -0.23542
C         21.90810        31.14065        -0.59667
C         23.11026        33.18613         0.13338
C         21.82380        34.01242         0.26221
C         23.22939        35.80400        -0.91623
C         21.90805        35.28961        -0.58415
C         25.73826         7.72883        -0.83414
C         24.47676         8.39955        -0.60239
C         25.68775        10.25630         0.56869
C         24.43624         9.65611         0.06094
C         25.71530        11.71884         0.76388
C         24.38772        12.46308         0.75464
C         25.70235        14.54023         1.11633
C         24.51902        13.74600         1.61427
C         25.69148        16.02074         1.16074
C         24.43464        16.83435         1.37520
C         25.78140        18.86720         0.73592
C         24.58664        17.99962         0.30995
C         25.79768        20.30042         0.46580
C         24.58609        20.90937        -0.15824
C         25.72696        23.21197        -0.00589
C         24.56526        22.38861        -0.37130
C         25.83897        24.48620        -0.79424
C         24.52046        25.29876        -0.85380
C         25.62415        27.47604         0.10505
C         24.49092        26.77030        -0.61438
C         25.64581        28.97806        -0.16356
C         24.45842        29.66803        -0.32232
C         25.70427        31.86578        -0.07681
C         24.41943        31.13725        -0.42904
C         25.63605        33.20712         0.50381
C         24.35746        34.00886         0.44383
C         25.69781        35.92226        -0.70796
C         24.41672        35.22369        -0.55313
C         28.20527         7.64819        -0.82696
C         26.95010         8.24327        -0.42789
C         28.28296        10.23217         0.48461
C         26.97603         9.48935         0.37646
C         28.17495        11.72174         0.31984
C         26.93211        12.42513         0.77218
C         28.22226        14.60126         0.83516
C         26.98328        13.81000         1.01385
C         28.23065        16.08151         1.06883
C         26.95519        16.76979         1.54989
C         28.17241        18.95423         1.48201
C         26.91642        18.23302         1.16819
C         28.16321        20.48611         1.24735
C         26.92434        21.07064         0.68171
C         28.21042        23.28604         0.33614
C         26.89615        22.60748         0.70756
C         28.24882        24.60161         0.01016
C         27.04159        25.34401        -0.40123
C         28.13285        27.56736         0.57957
C         26.97775        26.80993        -0.08805
C         28.18868        28.92289        -0.20391
C         26.88708        29.68113        -0.00628
C         28.11188        31.76005         0.46162
C         26.89542        31.04721         0.20254
C         28.08433        33.13850         0.64347
C         26.81870        33.77069         0.97473
C         28.18015        35.97300        -0.55878
C         26.92657        35.33994        -0.99419
C         30.64335         7.67641        -1.18715
C         29.43418         8.24239        -0.63551
C         30.78923        10.38803        -0.21802
C         29.54476         9.56529         0.03703
C         30.71710        11.90702        -0.21637
C         29.35521        12.52396        -0.11767
C         30.47421        14.85591        -0.42687
C         29.29011        14.02569        -0.04245
C         30.56384        16.31905        -0.00921
C         29.35904        16.96916         0.59560
C         30.74503        18.98904         1.53325
C         29.44126        18.26167         1.30623
C         30.72946        20.31832         0.68370
C         29.49916        21.17677         1.05781
C         30.79164        23.14705         0.00687
C         29.50144        22.61704         0.66863
C         30.81031        24.71539        -0.21966
C         29.50949        25.35556         0.26701
C         30.74327        27.64385         0.68215
C         29.46173        26.80887         0.58138
C         30.66466        28.92940        -0.14273
C         29.41507        29.72585         0.16734
C         30.62046        31.75762         0.98684
C         29.38146        31.05592         0.44472
C         30.50982        33.32608         1.03278
C         29.34717        33.82615         0.14624
C         30.47986        36.06983         0.30064
C         29.27059        35.33520        -0.00416
C         31.80066         8.39210        -1.33056
C         32.97777        10.57771        -1.32774
C         31.90525         9.78374        -0.96261
C         32.95822        12.00986        -1.22218
C         31.81274        12.67827        -0.83367
C         33.03365        14.92580        -0.84655
C         31.73702        14.16793        -0.87366
C         33.12963        16.28510        -0.22758
C         31.90655        16.86833         0.39367
C         33.31785        18.92355         1.26415
C         31.98784        18.16172         1.14993
C         33.23895        20.39140         0.82202
C         32.05816        21.06342         0.76105
C         33.29106        23.31351         0.55388
C         31.98644        22.59827         0.89217
C         33.26231        24.76843         0.41453
C         32.02742        25.46062         0.32825
C         33.21393        27.62016         0.30840
C         32.01025        26.87003         0.36723
C         33.20886        29.07123         0.17347
C         31.92969        29.77223        -0.03921
C         33.13485        31.95194         0.55497
C         31.86884        31.24023         0.29079
C         33.02862        33.38412         0.68050
C         31.81189        34.03490         0.72503
C         31.67919        35.46423         0.58268
C         34.18637        12.79434        -1.64628
C         35.46126        14.94427        -1.20586
C         34.30652        14.08283        -0.80861
C         35.52199        16.26939        -0.75944
C         34.35244        16.87769        -0.08474
C         35.84562        18.90890         0.46730
C         34.53947        18.16471         0.65665
C         35.85758        20.41962         0.66035
C         34.53371        21.15032         0.83960
C         35.75819        23.34447         0.47697
C         34.46671        22.61995         0.60150
C         35.76068        24.83116         0.37983
C         34.45924        25.52212         0.40392
C         35.70540        27.65828         0.15612
C         34.45194        26.92840         0.29763
C         35.72306        29.15045         0.41290
C         34.36958        29.82381         0.30259
C         34.32603        31.25236         0.42956
C         36.66930        17.02193        -1.02036
C         37.88263        19.20160        -1.07908
C         37.03109        18.26445        -0.27333
C         38.02980        20.50363        -0.76589
C         37.15475        21.18664         0.26665
C         37.90037        23.37713        -0.94530
C         36.84306        22.59818        -0.22923
C         37.91388        24.85395        -0.84872
C         36.89563        25.54859        -0.26665
C         36.85552        26.99680        -0.17982
C         39.12232        21.29417        -1.33721
C         39.12403        22.64328        -1.33274
O         22.80959        23.00239         1.12819
O         28.41344        12.01784        -1.12161
O         20.45511        10.35354         1.48269
O         28.04365        19.92228         2.57508
O         32.03463        16.89536         1.86707
O         30.93326        24.95431        -1.58636
O         12.35708        21.00365         2.55735
O         19.00007        24.92463        -1.74131
O         25.25211        31.72142        -1.47634
O         19.91348        10.62545        -2.14472
O         22.50798        17.93366        -0.93747
O         32.28085        14.81082        -2.09139
O         13.86576        31.04284        -2.66734
O         25.59140        15.33548        -0.12994
O         27.30771        26.37087        -1.41824
O         22.37320        24.76731        -1.96757
O         15.93191        28.25446        -2.62893
O         17.83496        25.33828         1.68841
O         22.83646        29.30267        -2.04654
O         24.62986        26.26182        -1.95670
O         21.71586        34.44551         1.61234
O         35.60111        18.12347         1.67148
O         20.50917        15.37217         2.70230
O         31.74026        22.87149         2.21920
O         28.34807        28.70130        -1.57619
O         16.37708        31.49103        -2.51893
O         22.53483        27.08226         0.86814
O         15.18516         9.94674         0.16886
O         36.71367        22.78097        -1.66638
O         16.39478        12.82049         1.72239
O          9.65943        18.32922         1.69577
O         29.16872         9.63543         1.46134
O         17.42153        18.69962        -0.34986
O         36.14472        24.13834         1.64084
O         24.85031        21.48370        -1.49159
O         29.66152        22.23523         2.06109
O         22.49996        20.54945        -1.38200
O         17.80761        20.85234         2.49543
O         17.96545        10.36836         0.95073
O         22.51698        14.06654         2.88951
O         31.16568        11.16384         0.95886
O         31.84060        30.79486        -1.10452
O         20.26317        19.36819        -0.86934
O         29.68798        17.13139        -0.83998
O         29.37036        14.64000        -1.35814
O         26.28775         9.44353         1.66148
O         35.41112        20.80953         1.99322
O         15.60035        19.62552         2.62380
O         28.75753        15.17012         2.09987
O         29.50124        25.80496         1.67167
O         25.00024        17.49768        -0.96263
H         24.19414        17.30172        -1.49426
O         26.74887        22.89363         2.14101
H         27.56939        22.58975         2.59531
O         20.41613        28.64712        -2.49120
H         21.30645        28.48020        -2.88593
O         25.27056        27.31968         1.50216
H         26.02139        27.67985         2.03840
O         20.20492        21.53518         2.09259
H         19.48105        21.68340         2.74823
O         30.85953        28.05931         2.06017
H         30.78756        27.25037         2.61390
O         12.88999        18.49207         2.82083
H         12.46289        19.24616         3.29328
O         24.08631        12.85058        -0.60280
H         24.78213        13.46490        -0.92727
O         19.62954        31.09712        -2.62897
H         19.86425        30.18466        -2.94084
O         30.17475        33.71982         2.38860
H         29.19707        33.77860         2.46634
O         19.01072        22.10936        -1.33070
H         18.98273        22.98368        -1.81169
O         26.07681        24.05949        -2.15964
H         25.99659        24.86728        -2.71889
O         14.42853        26.17723         1.83598
H         14.33031        25.49869         2.53687
O         17.40473        10.61833        -2.70923
H         18.41783        10.62001        -2.81479
O         14.83733        34.13149         1.16685
H         15.67417        34.63980         1.24615
O         19.89479        32.84311         1.22541
H         20.43232        33.31022         1.91934
O         23.46330        11.11931         2.54400
H         22.71457        10.55256         2.82901
O         26.97568        34.18719        -1.69178
H         27.90025        33.84306        -1.76734
O         30.78352        31.29388         2.34442
H         30.61299        32.06855         2.93611
O         24.40263        17.46505         2.66678
H         25.21773        17.22898         3.17494
O         19.79463        29.98464         0.87691
H         19.38772        29.27502         1.43447
O         30.54959        19.90747        -0.68120
H         30.65310        20.71321        -1.25160
O         12.92065        15.58398         1.95311
H         12.85775        16.34322         2.57865
O         26.84371        34.90678         1.70796
H         25.89694        35.16082         1.89135
O         24.92025        13.38078         2.94121
H         24.21281        12.81003         3.32500
O         24.24036        34.64573         1.73649
H         23.25114        34.78124         1.91594
O          9.26755        22.77986         2.51844
H         10.02013        22.28874         2.91319
O         11.88498        25.26416        -1.50740
H         12.77551        25.50090        -1.88283
O         33.52051        19.01023         2.69270
H         34.37138        19.49670         2.83852
O         18.33237        27.89259         1.48562
H         18.31759        27.01590         1.95122
O         13.54767        15.54507        -1.66129
H         12.69702        15.84743        -2.04449
O         26.97196        16.75414         3.00402
H         27.59416        16.03890         3.28711
O         13.89052        29.57328        -2.67066
H         15.87818        29.03105        -3.23203
O          9.34776        17.23036        -1.85698
H          8.51009        17.70239        -2.04332
O         36.66805        29.81013        -0.43866
H         36.35396        29.73181        -1.36274
O         37.94216        17.74521         0.75270
H         37.37581        17.45703         1.50754
O         27.81982        27.87319         1.95516
H         28.23851        27.17464         2.50954
O         30.83418        19.34857         2.91136
H         31.78993        19.38561         3.16656
O         20.00480        33.96591        -2.26773
H         19.88901        33.06622        -2.65925
O         12.02679        26.91445         1.78475
H         12.27331        27.82150         2.06093
O         34.51103        13.65479         0.56590
H         34.68114        14.44587         1.12035
O         30.54968        28.51160        -1.50846
H         30.56776        29.31248        -2.07892
O         17.96290        16.11825         2.97949
H         18.81135        15.77641         3.35859
O         16.30164        12.83852        -1.88257
H         16.74481        12.17793        -2.48295
O         29.55647        33.30128        -1.20357
H         30.39822        33.66763        -1.55062
O         19.31689        35.48059         1.00860
H         20.20706        35.25646         1.40413
O         37.93969        21.31888         1.46618
H         37.31962        21.53252         2.19993
O         34.15269        13.09783        -3.04034
H         33.37693        13.68721        -3.19637
O         14.39835        26.08238        -1.82788
H         14.83173        26.72772        -2.44565
O         30.88570        22.54736        -1.27309
H         30.94657        23.34425        -1.90622
H          7.29642        18.74967        -0.50367
H          6.03629        20.77531        -0.10449
H          6.03118        23.23245         0.09066
H          7.31198        25.28472        -0.04403
H          9.86037        14.44086        -0.82055
H          8.58260        16.35260        -0.11783
H          8.55953        27.39493        -0.14356
H          9.83635        29.53930        -0.31409
H         12.38433        10.28484        -1.60064
H         11.09819        12.28391        -0.95640
H         11.12139        31.59459        -0.09611
H         12.40804        33.62262         0.14709
H         15.88383         6.93115        -2.29699
H         13.74324         8.10511        -2.17000
H         15.63373        37.06779        -1.43785
H         13.53696        35.84420        -0.98354
H         18.32932         6.81109        -1.70072
H         18.13625        37.17503        -1.01495
H         20.81439         6.80485        -1.57005
H         20.82354        36.96571        -1.37239
H         23.28988         6.84248        -1.54503
H         23.25950        36.72529        -1.52161
H         25.71998         6.79239        -1.41245
H         25.72771        36.96020        -0.33340
H         28.15935         6.69926        -1.38385
H         28.19452        37.07628        -0.55952
H         30.59942         6.64238        -1.56011
H         30.45063        37.16343         0.18061
H         32.67241         7.92087        -1.80777
H         33.84769        10.11258        -1.81547
H         33.95000        33.98276         0.59754
H         32.58750        36.08202         0.64982
H         35.09639        12.17016        -1.46432
H         36.32369        14.50794        -1.73044
H         36.09656        29.30205         1.46576
H         35.28344        31.78599         0.52787
H         37.48825        16.53335        -1.57101
H         38.56274        18.73810        -1.81020
H         38.77290        25.39041        -1.27972
H         37.77305        27.56947        -0.38262
H         39.98440        20.74001        -1.73720
H         39.98629        23.21122        -1.71106
