         232
 CSIRO Nanostructure Databank - Neutral Graphene Oxide Data Set
C        -11.05114         0.29788        -0.82866
C         -9.92234         1.20295        -0.64187
C         -8.77245         0.63906         0.11131
C         -7.42270         1.17632        -0.22679
C         -6.32703         0.69543         0.67037
C         -5.36133         1.72446         1.02999
C         -3.60871         0.70433         1.85394
C         -2.39779         1.50470         1.57776
C         -1.14504         0.74190         1.57327
C          0.09012         1.40901         1.40895
C          1.31110         0.66210         1.49820
C          2.59260         1.38369         1.39533
C          3.79682         0.72465         1.40780
C          5.14559         1.40797         1.69159
C          6.28038         0.70771         0.89965
C          7.63790         1.40371         0.95026
C          8.81383         0.69935         0.71001
C         10.02075         1.40992         0.29608
C         11.11153         0.83211        -0.49045
C         -9.85025         2.49032        -1.07572
C         -8.64432         3.35146        -0.73039
C         -7.36065         2.53654        -0.92600
C         -6.11983         3.35243        -0.59887
C         -5.07821         2.83079         0.28071
C         -3.68063         3.34091         0.08104
C         -2.42917         2.80972         0.75942
C         -1.08264         3.31914         0.33933
C          0.05421         2.78605         0.93321
C          1.23698         3.68423         1.23637
C          2.55984         2.87415         1.74264
C          3.85491         3.65021         1.33991
C          5.17244         2.90409         1.38790
C          6.40900         3.50204         0.85262
C          7.62149         2.83170         0.84054
C          8.86139         3.56688         0.64650
C         10.03796         2.80197         0.39506
C         -8.51511         4.63962        -1.50544
C         -7.26227         5.27198        -1.64036
C         -6.06666         4.63398        -1.07208
C         -4.83836         5.48299        -0.86566
C         -3.58415         4.60885        -0.70465
C         -2.23612         5.25306        -0.94298
C         -0.98472         4.53993        -0.52196
C          0.34255         5.29994        -0.64182
C          1.41809         4.81467         0.29442
C          2.62595         5.52243         0.21888
C          3.82528         4.92511         0.60724
C          5.08781         5.59391         0.22460
C          6.40315         4.89597         0.40122
C          7.63609         5.70336         0.54268
C          8.85513         4.97183         0.63911
C         -7.13814         6.54542        -2.20461
C         -5.84166         7.27489        -2.47278
C         -4.57458         6.48444        -2.02288
C         -3.40458         7.35337        -1.56672
C         -2.23438         6.72191        -1.15553
C         -1.05926         7.46938        -0.83934
C          0.17576         6.82246        -0.55347
C          1.33193         7.58978        -0.43899
C          2.62681         6.88317        -0.38192
C          3.87549         7.71906        -0.25132
C          5.10764         7.06083         0.18571
C          6.28831         7.77932         0.33373
C          7.54283         7.09555         0.50665
C         -5.90065         8.69332        -1.94246
C         -4.80529         9.39732        -1.60539
C         -3.49201         8.77629        -1.47858
C         -2.36388         9.52316        -1.15229
C         -1.10888         8.90043        -0.89588
C          0.07412         9.65408        -0.68593
C          1.30818         9.02214        -0.49014
C          2.53267         9.78199        -0.31160
C          3.76329         9.18450        -0.15479
C          5.00597         9.88712         0.09322
C          6.19091         9.23229         0.28383
C        -11.13116        -0.89292        -0.19699
C        -10.17363        -1.39795         0.87895
C         -8.84405        -0.64193         0.87942
C         -7.55684        -1.36057         1.16560
C         -6.36542        -0.63768         1.32450
C         -5.10471        -1.36322         1.85764
C         -3.76144        -0.63061         1.71452
C         -2.50129        -1.45112         1.88026
C         -1.21130        -0.65045         1.71499
C         -0.01842        -1.38530         1.82051
C          1.25682        -0.74557         1.70973
C          2.55233        -1.52270         1.75399
C          3.83951        -0.76064         1.49413
C          5.04151        -1.46495         1.01888
C          6.36648        -0.79571         1.22666
C          7.55838        -1.44587         0.54619
C          8.72952        -0.75193         0.64206
C         10.21824        -1.42505        -0.87332
C         11.14806        -0.35244        -1.17273
C         -9.99012        -2.88612         0.78349
C         -8.76786        -3.52450         0.90033
C         -7.55335        -2.77458         1.12106
C         -6.25471        -3.43445         0.90828
C         -4.98529        -2.77689         1.26212
C         -3.79879        -3.46016         1.08970
C         -2.47535        -2.71576         1.01133
C         -1.27369        -3.53012         1.47558
C         -0.24209        -2.82362         2.02591
C          1.64698        -3.86334         1.72702
C          2.57032        -2.96460         1.32342
C          3.65459        -3.41035         0.39505
C          5.03954        -2.95203         0.84330
C          6.21505        -3.52649         0.01075
C          7.52647        -2.80051        -0.07620
C          8.44455        -3.15263        -1.23079
C          9.54827        -2.29914        -1.67906
C         -8.71113        -4.97095         0.82566
C         -7.52377        -5.66903         0.75984
C         -6.25147        -4.92461         0.62746
C         -4.97373        -5.63840         0.75174
C         -3.76523        -4.90847         0.86198
C         -2.53891        -5.64117         0.88669
C         -1.27615        -5.01382         1.33762
C          0.04215        -5.82263         1.07853
C          1.42390        -5.20668         1.13444
C          2.42231        -5.64269         0.12253
C          3.51021        -4.71425        -0.30248
C          4.69681        -5.37090        -0.88800
C          5.85405        -4.44014        -1.17491
C          7.07150        -5.17155        -1.71570
C          8.22209        -4.31296        -1.93169
C         -7.46060        -7.09814         0.73491
C         -6.25160        -7.77085         0.62574
C         -4.98987        -7.04971         0.65430
C         -3.76842        -7.74353         0.50305
C         -2.53677        -7.03613         0.60527
C         -1.31317        -7.72113         0.24509
C         -0.08370        -7.05689         0.26856
C          1.00511        -7.56084        -0.54616
C          2.16269        -6.81697        -0.72052
C          3.25108        -7.24161        -1.59297
C          4.58833        -6.60416        -1.43970
C          5.84879        -7.37953        -1.75201
C          6.99493        -6.46489        -2.13458
C         -6.21191        -9.20464         0.47974
C         -5.03835        -9.86370         0.26008
C         -3.77998        -9.15964         0.20974
C         -2.61172        -9.79028        -0.18661
C         -1.38009        -9.06962        -0.28979
C         -0.26180        -9.65117        -0.88506
C          0.92625        -8.89586        -1.12887
C          2.01634        -9.44878        -1.80575
C          3.16147        -8.64497        -2.20876
C          4.43542        -9.22265        -2.72087
C          5.61468        -8.58365        -2.63755
O         -6.40164         0.34222        -0.82993
O          0.90275         5.03783        -1.95602
H          0.14033         4.90188        -2.56863
O         -6.23496        -3.97183        -0.48666
O         -4.69842         1.49979         2.23383
O          6.60514        -1.00661         2.64849
H          5.99367        -0.41041         3.15534
O          0.84158         4.43931         2.41245
H          1.32980         3.96760         3.17354
O         -1.50638         4.41003        -1.90455
O          2.81696        -7.43393        -2.98000
O         -5.00127         6.27011         0.33863
H         -5.44458         5.72007         1.01782
O         -5.80554         7.43875        -3.91703
H         -5.30618         6.66579        -4.27159
O          0.74959        -3.50746         2.73113
O          4.73820         3.74520         2.51132
O          3.41702        -1.23107         2.88132
O         -8.71138         3.68762         0.68834
H         -9.56914         4.12940         0.85897
O         -0.63490        -5.82972         2.36456
O          5.42463        -3.59750        -2.21247
O          3.20699        -3.43115        -0.98209
O         -2.53194        -1.93141         3.24826
H         -2.68849        -1.17356         3.84849
O          5.35901         1.25965         3.10809
H          4.66401         1.80788         3.54844
O         -3.58685         3.32838        -1.40007
O         -2.30981        -2.30226        -0.36747
H         -2.62867        -3.01966        -0.95382
O         -5.35814        -1.57399         3.27697
H         -5.51405        -0.69641         3.68580
O          2.47795         2.83179         3.12867
O         -8.96343         0.63928         1.58235
O          9.91817        -1.46481         0.50179
O         -4.16783         5.71562        -3.17384
H         -3.45435         5.08531        -2.93381
O          5.84536         0.82127        -0.47943
H          6.50886         0.39455        -1.06185
O          6.25792        -7.98086        -0.46945
H          6.49905        -7.25150         0.14150
O          5.15722        -3.52965         2.17211
H          6.07901        -3.36200         2.47705
O         -2.44436         2.80559         2.22764
O          3.45009         7.12282        -1.55427
O          2.52026        -6.09864         1.54051
O          5.76278         4.97351        -0.94479
O          7.31658        -3.95434         0.84528
O        -10.83598        -1.13211         2.14795
H        -10.57838        -0.21522         2.40113
O         -7.31082         2.24385        -2.34013
H         -6.59337         1.58388        -2.47154
H         11.91941        -0.49534        -1.94555
H         11.89271         1.56560        -0.75226
H         10.95060         3.34292         0.10006
H          9.81085         5.51709         0.63478
H          8.46153         7.69753         0.57463
H          7.11190         9.81477         0.43391
H          4.98631        10.98716         0.10138
H          2.45355        10.87920        -0.27496
H          0.02438        10.75212        -0.73102
H         -2.43673        10.61967        -1.09810
H         -4.89152        10.46226        -1.33997
H         -6.87843         9.19624        -1.99242
H         -8.04500         7.03132        -2.59885
H         -9.41930         5.15381        -1.86738
H        -10.68936         2.93363        -1.63521
H        -11.85593         0.61179        -1.51135
H        -12.01966        -1.52086        -0.36717
H        -10.89774        -3.49351         0.64590
H         -9.66310        -5.52232         0.83688
H         -8.40086        -7.66914         0.75587
H         -7.16267        -9.75711         0.50164
H         -5.03430       -10.95192         0.10053
H         -2.63615       -10.84812        -0.48887
H         -0.32575       -10.68322        -1.26118
H          2.01851       -10.52713        -2.02695
H          4.36555       -10.16711        -3.28456
H          6.50673        -9.04296        -3.09204
H          7.88882        -6.93797        -2.57475
H          8.95127        -4.61230        -2.70176
H          9.82780        -2.36858        -2.74137
