         271
 CSIRO Nanostructure Databank - Neutral Graphene Oxide Data Set
C        -11.17346         0.59879        -0.51478
C        -10.01804         1.36459        -0.58023
C         -8.72132         0.74905        -1.06314
C         -7.58038         1.34911        -0.21176
C         -6.20492         0.72350        -0.54393
C         -5.10509         1.35057         0.32984
C         -3.81643         0.60945         0.44087
C         -2.52782         1.34071         0.58472
C         -1.31991         0.72058         0.30568
C         -0.06261         1.46512         0.36491
C          1.22565         0.76413         0.10686
C          2.49649         1.49606         0.38292
C          3.75970         0.69725         0.67007
C          5.04167         1.44139         0.29976
C          6.21577         0.77592         0.12282
C          7.43791         1.46664        -0.40863
C          8.76756         0.71881        -0.65108
C         10.01778         1.56373        -0.42598
C         11.24956         0.79198        -0.61989
C        -10.06770         2.79000        -0.06769
C         -8.81247         3.61990        -0.25735
C         -7.47956         2.90960        -0.44632
C         -6.44792         3.51522         0.57461
C         -5.10180         2.85223         0.34322
C         -3.83596         3.57113         0.64016
C         -2.57988         2.78037         0.91200
C         -1.29819         3.55575         0.81227
C         -0.04246         2.81758         0.56178
C          1.22114         3.59388         0.85493
C          2.49592         2.83272         0.59855
C          3.77420         3.57917         0.80473
C          4.97640         2.94879         0.11028
C          6.35528         3.58107         0.48567
C          7.44130         2.96440        -0.40744
C          8.74461         3.70934        -0.73623
C          9.98346         2.91741        -0.33845
C         -8.79726         4.96936        -0.20187
C         -7.48029         5.73686        -0.35553
C         -6.39467         5.04815         0.49447
C         -5.11747         5.80005         0.76963
C         -3.80132         5.06157         1.03447
C         -2.69468         5.71041         0.15329
C         -1.35911         4.94948         0.24212
C         -0.06626         5.66802         0.01943
C          1.25168         4.97957         0.23456
C          2.50660         5.77142         0.35147
C          3.75549         5.07994         0.84042
C          5.03973         5.85939         0.66709
C          6.33823         5.11664         0.48253
C          7.52813         5.85522        -0.04324
C          8.70468         5.16256        -0.35391
C         -7.58081         7.23030        -0.05341
C         -6.30271         7.99776         0.29177
C         -5.04484         7.25287         0.45119
C         -3.83035         7.93566         0.39086
C         -2.55664         7.17727         0.50315
C         -1.27217         7.90336         0.24173
C         -0.04702         7.15711        -0.20982
C          1.24135         7.91493        -0.30715
C          2.44473         7.29330         0.41917
C          3.77384         7.95161         0.11534
C          4.96006         7.29891         0.29542
C          6.27994         8.05233         0.36467
C          7.45585         7.25064        -0.13133
C         -6.19759         9.43171         0.01722
C         -4.98449        10.06342        -0.01985
C         -3.75887         9.34683         0.17347
C         -2.49031        10.03361         0.18602
C         -1.28062         9.38287         0.20843
C          0.05993        10.06650         0.47299
C          1.18236         9.45985        -0.41227
C          2.55193        10.07911        -0.24509
C          3.72723         9.38925        -0.16304
C          5.00736        10.06179        -0.38201
C          6.18577         9.43068        -0.23073
C        -11.16915        -0.78820        -0.72238
C         -9.96323        -1.52903        -0.91688
C         -8.69844        -0.78360        -0.98119
C         -7.51857        -1.46530        -0.91991
C         -6.26859        -0.80345        -0.36467
C         -4.94879        -1.50976        -0.74440
C         -3.69308        -0.62055        -0.44923
C         -2.49601        -1.44444        -0.03516
C         -1.28089        -0.73157         0.09909
C         -0.07230        -1.45512         0.15928
C          1.21665        -0.73829         0.02495
C          2.47291        -1.48808         0.26758
C          3.74695        -0.70687        -0.00626
C          5.00341        -1.48183         0.35071
C          6.27629        -0.69448         0.31406
C          7.60039        -1.38682         0.18252
C          8.89202        -0.63096         0.09450
C         10.21085        -1.42634        -0.07640
C         11.28989        -0.55816        -0.68083
C         -9.97907        -2.91152        -0.83057
C         -8.77188        -3.74326        -1.17019
C         -7.47253        -2.95908        -0.98801
C         -6.23062        -3.64853        -0.49719
C         -5.11254        -2.78697         0.10857
C         -3.81832        -3.55251         0.48602
C         -2.53239        -2.83822         0.09599
C         -1.31632        -3.56011         0.20476
C         -0.08705        -2.86261         0.16925
C          1.19918        -3.59805         0.17985
C          2.43897        -2.83132         0.49878
C          3.69013        -3.62074         0.64053
C          4.95141        -2.97523         0.05291
C          6.10831        -3.77531         0.72130
C          7.68410        -2.63688        -0.63679
C          8.85387        -3.55340        -0.50397
C         10.06959        -2.87607        -0.53725
C         -8.71026        -5.13727        -0.56840
C         -7.54273        -5.80126        -0.27505
C         -6.27217        -5.09143        -0.16624
C         -5.07823        -5.74599         0.03384
C         -3.82360        -5.02868         0.13954
C         -2.62573        -5.70514         0.26241
C         -1.33740        -5.01788         0.27154
C         -0.15932        -5.74059         0.25239
C          1.17798        -5.10085         0.19757
C          2.36173        -5.89914         0.78028
C          3.68250        -5.12781         0.61819
C          4.86103        -5.72834        -0.12497
C          6.24364        -5.25907         0.33941
C          7.38581        -5.65886        -0.60420
C          8.63324        -4.94428        -0.71757
C         -7.51690        -7.24857        -0.06552
C         -6.34652        -7.94968         0.00421
C         -5.02314        -7.24329        -0.15155
C         -3.91842        -7.89193         0.65583
C         -2.63098        -7.13767         0.64756
C         -1.36582        -7.92472         0.60461
C         -0.17774        -7.20763         0.07288
C          1.07601        -7.95833        -0.13981
C          2.42942        -7.37556         0.29393
C          3.56186        -7.85727        -0.57575
C          4.76526        -7.07309        -0.81169
C          6.06854        -7.82781        -1.09496
C          7.28319        -6.92511        -1.14292
C         -6.26703        -9.40652         0.03235
C         -5.10855       -10.08278         0.24835
C         -3.87653        -9.39033         0.70511
C         -2.55363       -10.07554         0.75719
C         -1.37320        -9.40858         0.68332
C         -0.00587       -10.02179         0.99166
C          1.13972        -9.47200         0.08188
C          2.55696        -9.58004         0.71927
C          3.71280        -9.35950        -0.29965
C          5.07706        -9.59713         0.33811
C          6.16879        -8.92443        -0.04229
O          4.66758         3.25437        -1.26722
H          5.30550         2.75901        -1.83947
O          1.16783         3.86035         2.28746
H          1.27130         3.01390         2.77123
O         -1.88558         3.24981         2.11121
O          5.62530        -1.11192         1.59539
O          0.87603        -6.59260         2.47383
H          0.63672        -6.25457         3.37160
O         -6.13883         5.58421         1.82275
O          3.68770         0.52666         2.10503
H          4.49564         0.02366         2.38276
O         -6.43027        -1.06680         1.06959
O          8.82596         0.35499        -2.00551
O         -4.74539         0.69053         1.57934
O          8.35458        -1.01709         1.39239
O          7.03782        -2.67412        -1.67705
O          1.45041        -4.40470        -1.05274
O         -7.41283         7.68013         1.27166
O          2.11412         5.16800        -0.92198
O         -1.81958        -7.31351         1.86343
O         -5.65930        -2.28920         1.37657
H         -4.09667        -2.77261         2.31111
O          4.64611        -5.80718        -1.54902
O         -0.74443         4.95682        -1.07831
O          0.63321         7.36289        -1.50018
O         -3.46508         5.24283         2.40660
H         -4.29250         5.24391         2.93336
O          6.53059        -5.95192         1.57122
O          3.99662        -4.39566         1.83793
O          6.57074         8.25903         1.79192
H          6.54908         7.36167         2.20923
O          3.81131         4.29323         2.07515
O          1.25342         0.08787        -1.21074
O         -4.59146        -7.44515        -1.53969
H         -5.22925        -6.98389        -2.12529
O         -3.37750         0.02500        -1.69370
O          2.64246        -8.30604         1.44922
O          6.99912         2.24416        -1.59000
O         -7.03363         3.10185        -1.75199
O          0.32276        -7.57432        -1.30727
O          3.65435       -10.17964        -1.46013
H          2.70665       -10.26183        -1.73065
O          3.81950        -0.54969        -1.44405
H          2.93792        -0.20450        -1.75032
O         -8.59381         1.11934        -2.44434
H         -7.89277         1.83674        -2.50724
O         -1.67005         7.45214         1.61228
O         -4.30538         3.41188        -0.74141
O          5.95747         5.63835         1.80649
O         -8.92659        -3.98444        -2.60811
H         -8.01394        -3.98474        -2.98429
O         -3.71576        -3.60185         1.94314
O          0.35788         9.91494         1.85982
H          0.73193         9.01773         2.02355
O          0.29904        -9.73193         2.35625
H          0.35083        -8.75635         2.47303
O         -4.21781        -8.54481         1.89775
O          6.68966         3.16006         1.82041
H          6.19048         3.74153         2.44079
O         10.73960        -1.69274         1.26663
H          9.95393        -1.76148         1.86482
O          4.84854        -3.19649        -1.35228
H          4.58530        -2.35582        -1.79672
O          2.15993        -5.93106         2.23995
O         -6.86654         3.17250         1.91142
H         -6.70466         3.95982         2.48422
O         -4.86585        -1.83349        -2.11490
H         -4.19869        -1.19552        -2.50158
O         -7.95089         1.03438         1.12982
H         -7.19219         1.20417         1.73467
O         -5.85698         0.99842        -1.89477
H         -4.87684         0.77113        -2.01920
O         -3.14950         5.72675        -1.20489
H         -3.10273         4.82397        -1.58973
O          2.14082         7.62819         1.81329
H          2.89806         7.36233         2.37887
O          0.79866         9.82884        -1.76016
H          0.72771         8.99827        -2.28958
O          5.96069        -8.45886        -2.38528
H          5.68874        -7.77453        -3.03198
O         -6.48084        -3.48828        -1.93281
O          1.02345       -10.12535        -1.19559
H          0.55366        -9.49396        -1.79146
O          6.68894        -3.39664         1.72139
H          6.79688        -5.26766         2.23193
O        -10.28989         2.65069         1.35387
H         -9.52032         2.13993         1.70589
O          8.86335         3.78761        -2.19067
H          8.54137         2.91926        -2.53965
O         -7.05843         5.70387        -1.72986
H         -6.98585         4.73789        -2.00628
H         12.23671        -1.05764        -0.93773
H         12.15432         1.36447        -0.88071
H         10.93156         3.47705        -0.28299
H          9.58659         5.75768        -0.64126
H          8.35559         7.80168        -0.44760
H          7.12846         9.96040        -0.43385
H          4.97760        11.10156        -0.74106
H          2.59905        11.16230        -0.43981
H         -0.02615        11.16000         0.25759
H         -2.50927        11.13464         0.17536
H         -4.93837        11.14748        -0.19804
H         -7.12711        10.00476        -0.10804
H         -8.34505         7.78438        -0.64863
H         -9.73208         5.54060        -0.08310
H        -10.95690         3.32682        -0.48731
H        -12.12315         1.08658        -0.24552
H        -12.11907        -1.34034        -0.66130
H        -10.93874        -3.42698        -0.66565
H         -9.63891        -5.72683        -0.63628
H         -8.48018        -7.78076        -0.02797
H         -7.18849        -9.97001        -0.18176
H         -5.09761       -11.18204         0.19163
H         -2.55173       -11.17288         0.86216
H         -0.04745       -11.13315         0.88389
H          2.69358       -10.42169         1.42949
H          5.14880       -10.39349         1.09570
H          7.15106        -9.15124         0.39706
H          8.11686        -7.30116        -1.75831
H          9.50102        -5.54829        -1.03547
H         11.00858        -3.45416        -0.58645
