         470
 CSIRO Nanostructure Databank - Neutral Graphene Oxide Data Set
C         37.86419        50.74231         1.27096
C         36.78393        51.60001         1.45794
C         38.14231        53.54332         0.94809
C         36.93325        53.00412         1.30009
C         40.34503        49.08127         1.29136
C         40.26624        50.36300         0.67861
C         39.12515        51.22729         0.88612
C         40.40575        53.13014        -0.26700
C         39.28653        52.67503         0.68421
C         40.33843        54.40431        -1.01358
C         42.53312        48.66336         0.29299
C         41.44058        48.26240         1.10834
C         42.44785        49.93771        -0.34437
C         41.33607        50.78385        -0.14925
C         42.42888        52.53794        -1.64935
C         41.15138        52.02962        -0.99593
C         42.54597        53.92290        -2.01901
C         41.34495        54.74221        -1.85202
C         44.90196        45.76163         0.45025
C         43.75193        46.50485         0.59539
C         44.86348        48.34990        -0.56162
C         43.71084        47.84014         0.12840
C         44.60362        49.48061        -1.39610
C         43.48037        50.30700        -1.28682
C         45.28579        52.58632        -2.28603
C         43.37198        51.56709        -1.97501
C         45.06919        53.94945        -2.06075
C         43.78869        54.59171        -2.22386
C         44.91641        56.81570        -2.17765
C         43.83168        56.03484        -2.42550
C         47.39989        44.23347         0.53808
C         47.33301        45.60465         0.28781
C         46.12635        46.35365         0.03219
C         47.46353        48.34713        -0.71447
C         46.15130        47.69926        -0.46416
C         47.58179        49.74218        -1.12477
C         46.50292        50.47728        -1.73279
C         47.58956        52.66568        -1.38173
C         46.40598        51.86633        -1.76504
C         47.52242        54.15010        -1.36375
C         46.17191        54.76012        -1.49046
C         47.39563        57.01804        -1.36746
C         46.10973        56.27381        -1.50489
C         47.44922        58.39102        -1.61685
C         49.83528        44.27268         1.02933
C         48.61209        43.59478         0.83859
C         49.78575        45.75765         1.12111
C         48.52283        46.41557         0.57214
C         49.95791        48.06889        -0.48606
C         48.62029        47.68318        -0.19408
C         50.02389        50.04300        -0.91018
C         48.73548        50.54827        -0.84681
C         49.89907        52.78924        -0.44283
C         48.60327        52.00941        -0.48878
C         49.84228        54.21873        -0.44544
C         48.63100        54.92567        -0.77011
C         49.77513        57.11200        -0.70048
C         48.58487        56.35055        -0.91079
C         49.80789        58.49051        -0.99775
C         48.63471        59.11378        -1.45650
C         52.37105        41.50267         0.68333
C         51.16853        42.17961         0.73374
C         52.35159        44.27220         1.25376
C         51.07616        43.56889         1.01546
C         52.36085        45.79197         1.24958
C         51.07394        46.60890         1.23154
C         52.32332        48.50948         0.15175
C         51.13309        47.72466         0.21136
C         52.34368        49.91872        -0.12433
C         51.18587        50.66957        -0.38797
C         52.27741        52.85294         0.14900
C         51.11922        52.12239        -0.21718
C         52.22145        54.25677         0.18709
C         51.02956        54.94424        -0.14207
C         52.26203        57.18140        -0.04132
C         50.97098        56.42670        -0.14635
C         52.38614        58.55288        -0.62408
C         51.10149        59.24835        -1.01859
C         52.30962        61.37987        -0.78176
C         51.13766        60.71484        -0.96555
C         54.94626        40.03129         0.51755
C         54.88140        41.44395         0.82357
C         53.63707        42.16252         0.83096
C         54.84887        44.28880         1.12005
C         53.63416        43.56588         1.02778
C         54.84681        45.75284         1.04145
C         53.60721        46.48812         0.88393
C         54.80332        48.58799         0.43380
C         53.57307        47.84643         0.52304
C         54.84279        49.97360         0.31678
C         53.61859        50.74332        -0.09154
C         54.78658        52.84138         0.68771
C         53.47177        52.07091         0.67707
C         54.73392        54.30977         0.89014
C         53.44252        55.01596         0.58510
C         54.83734        57.15623         0.04952
C         53.53925        56.41256         0.04427
C         54.83997        58.64975         0.01457
C         53.59855        59.34097        -0.28778
C         54.74445        61.53342        -0.14167
C         53.55559        60.71786        -0.46950
C         54.89789        62.88043        -0.70394
C         57.35917        39.89974         1.05309
C         56.10532        39.32413         0.53947
C         57.35749        41.41295         1.28607
C         56.08718        42.15011         1.04709
C         57.34366        44.26092         1.36380
C         56.07087        43.55867         1.12408
C         57.30808        45.76869         1.29875
C         56.05038        46.43590         0.94197
C         57.34707        48.62682         0.44050
C         56.06569        47.83559         0.48384
C         57.29981        50.09403         0.53117
C         56.05335        50.73040         0.46833
C         57.25110        52.87009         1.01433
C         55.98448        52.17504         0.64521
C         57.25267        54.37185         1.16352
C         56.00192        55.10323         0.84533
C         57.32647        57.16447         0.48773
C         56.02867        56.44009         0.57796
C         57.34110        58.63318         0.15149
C         56.03532        59.33912         0.13328
C         57.33216        61.56020         0.19220
C         56.05138        60.80511         0.23260
C         57.29740        62.93069        -0.14574
C         56.08775        63.52801        -0.66559
C         59.88042        37.15495         0.43886
C         58.68630        37.83633         0.57723
C         59.87776        39.94574         0.88487
C         58.66036        39.22665         0.81420
C         59.86717        41.38727         1.08061
C         58.66106        42.10622         1.21508
C         59.82098        44.26404         1.08416
C         58.64972        43.55259         1.20198
C         59.81155        45.72274         0.79833
C         58.60228        46.51513         1.16857
C         59.86900        48.65247         0.48844
C         58.61434        47.96703         0.85621
C         59.80802        50.11127         0.34923
C         58.53550        50.81828         0.59484
C         59.77788        52.94048         0.93492
C         58.55276        52.20165         0.78984
C         59.73685        54.37723         1.13360
C         58.55183        55.07118         1.09390
C         59.79636        57.27292         0.94470
C         58.49883        56.56740         1.24217
C         59.73217        58.72249         1.03762
C         58.65966        59.44020         0.23425
C         59.74309        61.67227         0.79360
C         58.55536        60.92397         0.52664
C         59.63383        63.12315         0.62544
C         58.49998        63.69975        -0.03033
C         59.68097        65.83869        -0.25560
C         58.57056        65.05224        -0.47582
C         62.39150        35.70150         0.05774
C         62.36897        37.12216         0.34736
C         61.12228        37.83401         0.48989
C         62.36672        39.96410         0.69676
C         61.12281        39.24934         0.70030
C         62.32293        41.39772         0.85484
C         61.12866        42.08586         1.04605
C         62.28745        44.27487         0.46002
C         61.15487        43.59117         1.28321
C         62.34068        45.77539         0.64396
C         61.06696        46.49099         0.46841
C         62.31406        48.67552         0.69915
C         61.07063        47.97672         0.54508
C         62.34555        50.10748         0.80044
C         61.11263        50.88072         0.53830
C         62.25513        52.99094         1.17370
C         61.03358        52.29177         0.94711
C         62.28979        54.38259         1.24150
C         61.01142        55.09512         1.40924
C         62.31158        57.31995         1.18664
C         61.02309        56.61700         1.39427
C         62.29743        58.72354         1.07796
C         61.04041        59.50954         1.20799
C         62.29685        61.59050         0.99041
C         61.00752        60.97746         0.99062
C         62.51146        62.96100         1.33833
C         60.61008        64.05252         1.06598
C         61.90072        66.19763         0.87506
C         60.72879        65.37550         0.58431
C         62.32243        67.32630         0.20883
C         64.84612        35.59777         0.21521
C         63.53854        34.98558        -0.05796
C         64.86310        37.09727         0.38096
C         63.57964        37.83300         0.39720
C         64.88249        39.92553         0.47500
C         63.60030        39.25274         0.53281
C         64.86942        41.40248         0.47768
C         63.58720        42.15818         0.64763
C         64.48810        44.32765         1.59662
C         63.55298        43.62420         0.93178
C         64.66049        45.82383         1.63729
C         63.48258        46.46919         0.91346
C         64.73846        48.56584         1.07701
C         63.50899        47.92711         0.89097
C         64.75211        50.01196         1.29660
C         63.50661        50.76453         1.16554
C         64.67169        52.91896         0.59021
C         63.55978        52.25780         1.42358
C         64.72284        54.41864         0.79752
C         63.53001        55.12162         1.07922
C         64.74049        57.24976         0.72605
C         63.51816        56.56493         1.02540
C         64.73685        58.67145         0.58488
C         63.50489        59.41277         0.74003
C         64.66772        61.55949         0.25346
C         63.47311        60.82612         0.69418
C         64.79140        62.99918         0.48364
C         63.68527        63.67682         1.08657
C         64.85760        65.83983         0.82653
C         63.78317        65.09456         1.28697
C         64.78773        67.29072         0.70123
C         63.61253        67.94360         0.40647
C         67.47008        32.90093        -0.40201
C         66.23168        33.55471        -0.11429
C         67.22555        35.74289        -0.75969
C         66.10331        34.91079        -0.19085
C         67.27971        37.16130        -0.23001
C         66.13189        37.82569         0.11417
C         67.32003        39.99129        -0.12373
C         66.09816        39.27296         0.22920
C         67.27687        41.46313        -0.22486
C         66.18054        42.09327         0.52566
C         67.47826        44.19472         0.80607
C         66.39606        43.28642         1.13809
C         67.37631        45.60835         0.94391
C         66.02452        46.29513         0.98135
C         67.25436        48.56111         0.59946
C         65.98013        47.79459         0.81661
C         67.26608        50.05342         0.59316
C         66.06888        50.81903         1.05123
C         67.19098        52.91804         0.37308
C         66.01830        52.24137         0.73807
C         67.16291        54.36436         0.25662
C         65.94615        55.08922         0.51445
C         67.18198        57.21149         0.25621
C         65.95602        56.52139         0.50574
C         67.18967        58.63560         0.28038
C         65.97762        59.33719         0.36884
C         67.21007        61.55665         0.06681
C         65.97411        60.78040         0.08803
C         67.16660        62.92420        -0.10568
C         65.97434        63.67814         0.19162
C         67.22924        65.79628         0.14818
C         66.04712        65.12145         0.37720
C         67.25166        67.29984         0.15313
C         66.12476        67.97794         0.97904
C         67.40791        70.08086         0.36618
C         66.26068        69.47189         0.72109
C         70.09878        31.59318        -0.50920
C         69.92066        32.94367        -0.87091
C         68.62056        33.61255        -0.70680
C         69.70195        35.79822        -1.10443
C         68.56457        35.04818        -0.79384
C         69.74429        37.20817        -0.88551
C         68.61699        37.85553        -0.11434
C         69.76850        40.07583        -0.54104
C         68.52434        39.34788        -0.34610
C         69.83107        41.47918        -0.38029
C         68.58432        42.23115        -0.26020
C         69.85399        44.32197         0.23086
C         68.63615        43.60477         0.26590
C         69.81768        45.70924         0.55203
C         68.57379        46.35351         0.75903
C         69.81255        48.65194         0.61944
C         68.55003        47.84661         0.84871
C         69.72645        50.09586         0.28024
C         68.53773        50.81145         0.47525
C         69.63224        52.91943        -0.13688
C         68.45266        52.21567         0.26361
C         69.59076        54.34126        -0.29460
C         68.37129        55.06786        -0.02117
C         69.60387        57.20439        -0.35316
C         68.38710        56.49222        -0.03059
C         69.67993        58.62318        -0.23934
C         68.48541        59.35053         0.23429
C         69.70654        61.56263        -0.34692
C         68.50729        60.87022         0.14073
C         69.65502        62.90947        -0.72111
C         68.35845        63.62402        -0.61725
C         69.64191        65.85833        -0.74631
C         68.34627        65.12655        -0.54970
C         69.83557        67.09843         0.07225
C         68.62484        67.91844         0.53726
C         70.00463        69.98120         0.54112
C         68.70854        69.37315         0.00347
C         70.07298        71.30123         1.00070
C         72.39743        31.66060        -1.24233
C         71.32419        30.95767        -0.69008
C         72.24172        33.00149        -1.59402
C         71.01972        33.66359        -1.39951
C         72.08059        35.91895        -1.87466
C         70.83340        35.10500        -1.80668
C         72.08997        37.23947        -1.59448
C         70.91857        37.94058        -1.10347
C         72.19378        40.08828        -0.82707
C         70.97671        39.35769        -0.81104
C         72.24594        41.44984        -0.58586
C         71.06027        42.20567        -0.35980
C         72.27181        44.41096        -0.17156
C         71.06777        43.62691        -0.12117
C         72.30500        45.71908         0.19428
C         71.12266        46.46294         0.75361
C         72.07539        48.59598        -0.30876
C         71.03895        47.91106         0.28523
C         72.02215        49.99384        -0.53630
C         70.88704        50.75941        -0.22605
C         71.95853        52.91580        -0.87701
C         70.83106        52.19767        -0.41661
C         71.92438        54.28949        -1.01255
C         70.75845        55.03292        -0.70519
C         71.92735        57.20539        -1.09159
C         70.76690        56.48301        -0.74446
C         71.97648        58.58812        -0.99101
C         70.86693        59.32429        -0.53669
C         72.11911        61.52834        -0.93421
C         71.01160        60.81664        -0.20896
C         72.03238        62.84450        -1.27917
C         70.83311        63.61324        -1.11910
C         72.17604        65.83558        -1.09385
C         70.87693        65.09999        -1.16944
C         72.27275        67.11036        -0.66618
C         71.16416        67.77076         0.07296
C         72.40815        69.78049         0.90168
C         71.19533        69.21072         0.48837
C         72.45730        71.09919         1.35759
C         71.28758        71.85690         1.41127
O         57.26951        45.06789         2.59246
O         56.83074        48.02929        -0.79728
O         40.60587        53.20799         1.15256
O         60.55527        50.63937        -0.79754
O         50.17955        48.84896        -1.63874
O         67.70930        42.08374        -1.46181
O         64.97893        36.19922         1.55878
O         65.75771        46.86196        -0.32982
O         58.72010        47.49065         2.25734
O         68.72180        60.17160         1.45003
O         57.14714        53.49986         2.34344
O         51.42963        57.06382         1.13973
O         67.96343        64.43004        -1.78841
O         57.24901        40.46465         2.40153
O         67.12409        49.28785        -0.67168
O         64.10835        41.89597        -0.70918
O         57.52198        57.59580        -0.89418
O         61.49597        63.59824         2.05659
O         53.83263        54.78705         1.97390
O         60.19902        45.97977        -0.61884
O         45.53100        49.72600        -2.41706
O         70.02591        65.85231        -2.14605
O         60.15289        59.20121         2.35223
O         60.92006        55.86638         2.67362
O         65.56071        43.65730         2.19049
O         70.38429        35.05922        -3.31734
O         54.31963        56.50938        -1.18468
O         65.12070        61.11351        -1.07049
O         64.61930        46.30229         2.93754
O         70.75565        66.85843         1.19451
O         65.63941        50.45682         2.40489
O         45.79566        55.49828        -0.28898
O         48.79524        46.34618         2.02085
O         44.30297        51.86492        -2.99462
O         69.28258        48.36739         2.00540
O         52.42530        45.05577         2.51560
O         52.00844        58.65799        -2.03042
O         62.72234        65.74865         1.93877
O         48.05069        53.41976        -2.55048
O         55.15744        61.36555         1.25224
O         66.24554        67.75067         2.39792
H         67.14007        68.05392         2.68410
O         48.01743        52.08132         0.85040
H         48.66799        51.72598         1.49236
O         61.50374        43.81694         2.67824
H         60.77498        43.48129         3.24170
O         63.84521        52.45962         2.82605
H         64.56723        51.83245         3.07762
O         71.36899        60.84916         1.21989
H         70.56533        60.53884         1.70757
O         51.04185        47.28734         2.50939
H         51.20157        46.60459         3.19855
O         69.00869        37.69326         1.30243
H         68.25069        37.98363         1.85391
O         59.20917        59.45431        -1.12425
H         58.88219        58.63766        -1.57375
O         71.33405        46.53216         2.20269
H         70.62531        47.12257         2.56092
O         66.95412        67.64267        -1.24177
H         67.18578        66.87689        -1.81180
O         40.25428        51.64246        -2.09100
H         40.73250        51.00641        -2.66403
O         68.86732        69.39951        -1.42893
H         68.05574        68.98651        -1.81237
O         69.10709        34.41620        -3.39052
H         69.32711        33.45178        -3.38866
O         64.29448        52.71361        -0.80943
H         64.98192        53.12401        -1.37547
O         66.87187        35.90730        -2.19358
H         67.61617        35.55408        -2.73892
O         58.21689        56.84341         2.64933
H         59.00273        56.53231         3.15971
O         68.73068        68.03941         1.97077
H         69.60815        67.65467         2.22863
O         62.07371        43.99795        -0.93135
H         61.36500        44.60608        -1.25004
O         53.17329        51.76739         2.06072
H         53.24074        52.60690         2.56846
O         53.85832        51.15336        -1.47366
H         54.04527        50.35109        -2.00524
H         37.71923        49.66156         1.41021
H         35.80595        51.19098         1.74488
H         38.26909        54.63125         0.86478
H         36.07061        53.65939         1.48428
H         39.53304        48.74999         1.95343
H         39.49842        55.09434        -0.84980
H         41.46774        47.29423         1.62596
H         41.29116        55.71243        -2.36586
H         44.90681        44.72140         0.80118
H         42.86469        46.04206         1.04636
H         44.89233        57.87645        -2.46597
H         42.95071        56.51917        -2.87175
H         46.50947        43.60324         0.40381
H         46.55091        58.92181        -1.96049
H         48.59769        42.49796         0.89360
H         48.64037        60.18305        -1.70643
H         52.34579        40.41918         0.50833
H         50.24938        41.60139         0.56820
H         52.29024        62.47864        -0.76240
H         50.20092        61.28447        -1.04109
H         54.03604        39.52833         0.16255
H         54.04100        63.35308        -1.20392
H         56.10633        38.29234         0.16054
H         56.13712        64.54133        -1.08449
H         59.84561        36.06742         0.29819
H         57.74674        37.26875         0.54536
H         59.71709        66.85886        -0.66182
H         57.73617        65.48273        -1.04300
H         61.44189        35.18850        -0.14525
H         61.64159        67.80898        -0.50915
H         63.50122        33.93952        -0.39538
H         63.67199        69.01717         0.16268
H         67.49969        31.80645        -0.31756
H         65.38774        32.93771         0.22768
H         67.39130        71.17575         0.23512
H         65.38148        70.10360         0.93104
H         69.26758        31.02582        -0.06945
H         69.16215        71.91422         1.04333
H         73.36484        31.16341        -1.39560
H         71.44377        29.90503        -0.39945
H         73.09866        33.53376        -2.02760
H         73.00218        35.44496        -2.23940
H         73.03013        37.79436        -1.71642
H         73.14143        39.56291        -1.00638
H         73.22536        41.94713        -0.58098
H         73.20443        43.93471        -0.50720
H         73.27373        46.23940         0.18983
H         73.00025        48.07072        -0.58484
H         72.91636        50.47319        -0.95486
H         72.89040        52.38714        -1.11627
H         72.83321        54.80168        -1.35283
H         72.83063        56.67853        -1.42463
H         72.91346        59.09813        -1.24894
H         73.08404        61.01798        -1.05977
H         72.91787        63.33518        -1.70953
H         73.05802        65.36024        -1.54938
H         73.23093        67.64452        -0.75167
H         73.32825        69.17926         0.87299
H         73.41416        71.53356         1.67805
H         71.31938        72.89425         1.77241
