         257
 CSIRO Nanostructure Databank - Neutral Graphene Oxide Data Set
C         31.19572        31.22219        -2.50892
C         31.05178        32.48245        -2.40123
C         30.51879        35.77457        -1.05385
C         30.50864        37.01182        -0.96380
C         30.62073        40.41791        -1.37073
C         30.51452        41.56939        -0.86916
C         33.28606        28.70065        -1.06834
C         32.18587        29.11701        -1.44726
C         32.80288        31.39825        -0.55700
C         31.44157        30.38582        -1.31468
C         32.70342        32.91660        -0.71057
C         31.69146        33.47656        -1.66310
C         32.82895        35.70326        -1.68581
C         31.48205        34.93958        -1.89188
C         32.85545        37.19043        -1.42041
C         31.65065        37.95436        -0.88778
C         32.76251        40.25570        -0.37835
C         31.47084        39.43459        -0.53192
C         32.62430        41.58244         0.28732
C         31.40226        42.38444        -0.10958
C         32.64033        44.28300         0.52010
C         31.51682        43.70467         0.26444
C         36.04190        27.39914        -0.33313
C         35.71406        28.79572        -0.39632
C         34.47203        29.34997        -0.59393
C         35.30129        31.65380         0.22403
C         34.14766        30.77646        -0.24390
C         35.18309        33.15413         0.23286
C         33.93637        33.76009        -0.39139
C         35.35014        35.87945        -0.95824
C         34.07015        35.06797        -1.12408
C         35.32522        37.34085        -1.25417
C         34.15086        37.85420        -1.69940
C         35.24894        40.49992        -0.49491
C         33.97440        39.98129        -0.95647
C         35.24728        41.69686         0.20218
C         33.96513        42.36779         0.54312
C         35.19386        44.58662         0.15463
C         33.93542        43.84918         0.50672
C         35.39515        45.92555         0.80520
C         38.22828        26.93546         0.51335
C         36.85147        26.64301         0.24336
C         38.13357        29.13498         0.23199
C         36.85058        29.59737         0.07119
C         37.82136        31.89800         0.77405
C         36.67982        31.06892         0.25679
C         37.68808        33.38970         1.00089
C         36.34672        34.10902         0.62623
C         37.73872        36.19257        -0.08471
C         36.54821        35.30018        -0.29547
C         37.78262        37.45477        -0.61583
C         36.55568        38.18161        -1.08879
C         37.73788        40.26489        -0.06819
C         36.50368        39.72076        -0.76819
C         37.72293        41.61530         0.59600
C         36.47523        42.42818         0.49603
C         37.72388        44.54275         0.86532
C         36.45511        43.79177         0.61897
C         37.66797        45.86144         1.63421
C         36.39183        46.49259         1.25179
C         40.28800        24.95218         2.65644
C         39.21412        25.45002         2.25022
C         40.32716        27.54167         1.72481
C         39.10276        26.69434         1.55130
C         40.32341        28.90384         1.50286
C         39.00437        29.67231         1.35063
C         40.34339        31.97649         1.42601
C         39.06040        31.20829         1.31756
C         40.40190        33.52125         1.25494
C         39.00410        34.14242         0.92554
C         40.32606        36.02206        -0.30095
C         39.00597        35.41322         0.10920
C         40.35615        37.47665        -0.49232
C         39.08456        38.16946        -0.69797
C         40.33734        40.29246         0.05253
C         39.07629        39.67427        -0.41674
C         40.32782        41.65107         0.44660
C         39.04475        42.28468         0.99559
C         40.26161        44.43768         1.41733
C         39.01036        43.80694         0.85388
C         40.27380        45.75277         2.13159
C         38.88568        46.45471         2.27282
C         40.12764        48.48369         2.27277
C         39.06073        47.88742         2.56374
C         42.77549        24.65273         2.75169
C         41.63926        25.34355         2.45079
C         42.85041        27.44194         1.39661
C         41.61904        26.81955         2.03256
C         42.81873        28.89134         1.02361
C         41.60959        29.65892         1.47273
C         42.78738        31.80275         0.67107
C         41.62801        31.16339         1.38907
C         42.85599        33.30246         0.64336
C         41.57899        34.04656         0.44269
C         42.77066        35.86772        -0.86108
C         41.61151        35.32402        -0.02466
C         42.78655        37.48645        -1.02918
C         41.57359        38.18187        -0.39843
C         42.82586        40.34668        -0.04113
C         41.55099        39.58625        -0.12735
C         42.80657        41.72114         0.54920
C         41.56082        42.36303         0.60939
C         43.20950        44.50484         2.07508
C         41.40693        43.85933         0.59626
C         42.92804        45.90255         1.86238
C         41.63805        46.54917         2.46077
C         42.49596        48.56642         1.31115
C         41.44696        48.08354         2.06110
C         43.79983        24.03063         3.15277
C         45.08574        27.26280         0.14564
C         43.85414        26.55742         0.65970
C         45.20444        28.77772         0.28101
C         43.97413        29.52417         0.67442
C         45.35559        31.62563         0.18883
C         43.99639        30.97602         0.34403
C         45.40976        33.11670         0.13237
C         44.13842        33.92259         0.21863
C         45.49200        35.90436        -0.66781
C         44.14475        35.22575        -0.53762
C         45.48464        37.42749        -0.69639
C         44.16679        38.17046        -0.79792
C         45.42410        40.36649        -0.18219
C         44.10907        39.65468        -0.42819
C         45.39802        41.68458         0.54241
C         44.08545        42.35292         0.98166
C         45.36667        44.60494         0.97055
C         44.17588        43.81014         1.31836
C         45.11695        46.04286         0.64743
C         43.88114        46.63171         1.07298
C         43.52909        47.98546         0.86843
C         47.50759        27.29095        -0.00591
C         46.43181        26.70024         0.17312
C         47.79635        28.63338         0.53763
C         46.52859        29.46182         0.50376
C         47.84235        31.58036         0.82124
C         46.57595        30.83375         0.54780
C         47.88964        33.10423         0.76934
C         46.60097        33.93267         0.63011
C         48.02779        35.93884        -0.03125
C         46.81070        35.10463        -0.38825
C         47.99288        37.41363        -0.19362
C         46.64898        38.10313         0.04428
C         47.94339        40.30434         0.26514
C         46.74223        39.61119        -0.17489
C         47.95534        41.78153         0.45766
C         46.61444        42.46507         0.35534
C         47.67646        44.66916        -0.27274
C         46.64611        43.91543         0.52723
C         47.29577        45.97954        -0.37060
C         46.21733        46.57550         0.01023
C         50.20418        28.87724        -0.41801
C         49.12499        29.33261         0.44380
C         50.39900        31.63558         0.36640
C         49.18007        30.83926         0.72260
C         50.37439        32.98742         0.07366
C         49.19346        33.80349         0.46690
C         50.51913        35.93586         0.15125
C         49.19712        35.27245         0.17344
C         50.60806        37.47610         0.21211
C         49.26646        38.17624         0.02724
C         50.21957        40.30994        -0.73262
C         49.30256        39.67438         0.35371
C         49.97726        41.57469        -1.19597
C         49.05075        42.46593        -0.41191
C         49.70543        44.26137        -1.89187
C         48.89179        43.95753        -0.71608
C         51.02987        29.38128        -1.19953
C         52.20068        31.55705        -1.95967
C         51.83675        30.55429        -1.05281
C         52.16127        32.74312        -1.40716
C         51.44524        33.64669        -0.68171
C         52.61007        35.95451        -1.14220
C         51.67498        35.08139        -0.41693
C         52.50851        37.19036        -1.22634
C         51.53916        38.15985        -0.84795
C         52.06718        40.23053        -2.19244
C         51.33078        39.45498        -1.23592
C         51.97532        41.38802        -2.62988
C         50.65090        42.11117        -2.54987
C         50.60995        43.60738        -2.42600
O         37.53288        40.37575         1.37628
O         34.03372        39.17663        -2.10079
O         39.53823        35.20540        -1.24368
O         46.22536        40.30879        -1.38513
O         32.78571        33.71351         0.50665
O         33.02714        30.87174         0.74060
O         33.16783        41.74220         1.60527
O         44.87612        35.24034        -1.79669
O         42.65638        27.44120         2.85070
O         39.17232        39.17528        -1.75889
O         44.93249        28.11479        -1.01518
O         37.93365        45.70129         3.04353
O         34.91652        32.36101         1.43332
O         46.49574        44.41191         1.92429
O         38.22599        34.05730         2.15968
O         51.65432        30.98658         0.33198
O         32.61653        37.38407         0.04248
O         45.07654        38.00524        -1.93699
O         38.63750        27.97489        -0.36694
O         42.99988        31.28404        -0.68462
O         43.70716        33.98735         1.61955
O         49.75163        43.48014         0.37656
O         48.72746        33.60132         1.85429
O         48.71361        28.62763         1.63798
O         38.57193        44.47345        -0.35644
O         48.74860        37.94260        -1.32208
O         41.93438        30.50839         2.64526
O         42.39383        37.78968        -2.33448
O         36.37911        35.10416        -1.71870
O         45.57369        32.35161        -1.08160
O         40.26243        44.50028         2.86612
O         43.40465        40.43824        -1.43380
O         51.55574        35.34694         1.00582
O         41.93420        44.52961        -0.27773
O         36.73713        39.21073        -2.09363
O         37.63415        31.72598        -0.67632
O         33.79473        35.11446        -2.57612
O         39.51902        31.69371         2.60629
O         48.56297        31.10977         2.00494
O         44.85344        41.49104         1.92249
O         47.21539        34.47654        -1.62049
H         46.40493        34.36625        -2.17925
O         31.12584        35.13233        -3.24796
H         30.60600        34.35846        -3.55536
O         49.81659        39.95610         1.65333
H         50.65796        39.46022         1.79012
O         35.86950        34.74426         1.82688
H         35.56666        34.04428         2.44732
O         48.29562        42.01623         1.84673
H         48.81739        42.85545         1.88619
O         41.74617        46.52064         3.87506
H         41.46513        45.63204         4.18896
O         51.16501        37.78614         1.49693
H         51.75217        37.02986         1.74738
O         49.82254        41.69542        -3.59604
H         50.22140        41.94096        -4.45551
O         42.51473        43.79448         2.99301
H         42.89687        42.89686         3.07888
O         40.72428        34.01893         2.57123
H         40.05956        33.64339         3.19344
O         30.88427        39.38078         0.75677
H         30.26314        38.62316         0.80053
O         46.32530        37.94200         1.44965
H         46.97895        38.42798         1.99784
O         43.61665        25.40192         0.39614
O         35.26790        44.70169        -1.26044
H         36.09548        45.16767        -1.50326
O         30.39846        30.36091        -0.43425
H         30.61519        29.79060         0.33098
O         38.22443        29.37313         2.54415
H         38.65860        29.84139         3.29356
O         39.16685        42.09341         2.42986
H         38.73803        41.23503         2.65297
O         46.26609        34.46810         1.90944
H         47.08025        34.45105         2.46446
O         42.43011        35.34856        -2.14912
H         42.31886        36.14601        -2.74554
