         638
 CSIRO Nanostructure Databank - Neutral Graphene Oxide Data Set
C         22.95865        69.92656         1.27672
C         23.17060        71.22875         2.02221
C         22.11295        71.81818         2.70179
C         23.45991        73.75855         3.25133
C         22.26238        73.07783         3.32532
C         25.57815        65.71622         1.03922
C         25.51779        67.06638         0.85705
C         24.30431        67.82552         1.13914
C         25.41046        69.99612         0.55838
C         24.24532        69.17402         1.05406
C         25.54685        71.32284         1.28384
C         24.42548        71.90063         1.95528
C         25.79598        73.88688         2.44538
C         24.56987        73.19240         2.55905
C         27.88699        61.34528         0.28017
C         27.87831        62.79412         0.28403
C         26.76133        63.50843         0.64126
C         27.79387        65.65838        -0.11040
C         26.89810        64.97681         0.94355
C         27.92302        67.13323         0.20912
C         26.72755        67.82062         0.50018
C         27.91554        69.93976         0.34845
C         26.71505        69.22947         0.53058
C         27.88801        71.41352         0.46336
C         26.73948        72.02643         1.17457
C         28.13831        74.02988         1.68711
C         26.88971        73.33233         1.75979
C         30.29546        57.04008        -0.01249
C         30.25757        58.40122        -0.01669
C         29.00461        59.13717         0.40407
C         30.32665        61.32796         0.05540
C         29.04942        60.63646         0.18346
C         30.32466        62.78600         0.02951
C         29.13551        63.48045         0.04181
C         30.35022        65.64103         0.29973
C         29.14825        64.94984        -0.35859
C         30.39255        67.12105         0.01667
C         29.14495        67.83557         0.08783
C         30.39610        69.98300         0.08986
C         29.13989        69.26062         0.14517
C         30.43891        71.33872         0.35616
C         29.21509        72.13620         0.48688
C         30.53746        74.13017         1.12730
C         29.29636        73.46867         1.13495
C         32.75313        52.76020         0.08685
C         32.75223        54.14922        -0.03976
C         31.53077        54.89256        -0.05629
C         32.75777        56.97896        -0.36623
C         31.52513        56.28519        -0.18944
C         32.74840        58.42301        -0.63190
C         31.44367        59.17604        -0.43281
C         32.83517        61.30605        -0.01050
C         31.49543        60.62946        -0.16909
C         32.80016        62.78556        -0.30556
C         31.59450        63.50333        -0.14505
C         32.82395        65.62852        -0.27534
C         31.61638        64.91450        -0.09857
C         32.85248        67.06966        -0.24215
C         31.60969        67.79636        -0.09812
C         32.84108        69.92070        -0.29669
C         31.63989        69.24029        -0.11542
C         32.76378        71.43278        -0.46894
C         31.78582        71.98764         0.58689
C         32.90800        74.21499         0.53264
C         31.73884        73.50265         0.68051
C         35.37395        48.48868        -0.55808
C         35.33828        49.89915        -0.40909
C         33.98709        50.59117        -0.40838
C         35.25908        52.75651        -0.01449
C         34.01032        51.96906         0.28851
C         35.24386        54.16122        -0.09199
C         33.99900        54.87686        -0.12644
C         35.23421        57.00317        -0.46666
C         33.99139        56.28249        -0.29671
C         35.22233        58.39692        -0.69841
C         34.02851        59.16541        -0.63962
C         35.22858        61.32112        -0.74485
C         34.03526        60.57914        -0.58844
C         35.24945        62.74496        -0.65300
C         34.01401        63.47869        -0.50315
C         35.25187        65.61880        -0.71724
C         34.02921        64.90598        -0.51626
C         35.29201        67.03555        -0.59336
C         34.07553        67.76426        -0.38574
C         35.30825        69.92521        -0.39582
C         34.08652        69.22015        -0.38891
C         35.35612        71.34592        -0.30775
C         34.11730        72.14000        -0.40187
C         35.45449        74.10974         0.51407
C         34.16351        73.57701         0.09406
C         37.86714        44.24009        -0.36157
C         37.84612        45.66855        -0.50821
C         36.62633        46.38666        -0.48719
C         37.85208        48.49989        -1.05575
C         36.58384        47.78623        -0.61783
C         37.84406        50.05637        -0.80412
C         36.52040        50.62981        -0.32418
C         37.70487        52.75997         0.09236
C         36.49628        52.05404        -0.07409
C         37.71285        54.18356         0.03530
C         36.48010        54.88556        -0.16928
C         37.72785        56.99582        -0.42642
C         36.48223        56.29300        -0.37117
C         37.75451        58.38911        -0.73104
C         36.48570        59.06980        -1.02313
C         37.76395        61.27286        -0.86915
C         36.47691        60.60957        -1.09574
C         37.77612        62.76445        -0.62301
C         36.46008        63.47624        -0.83802
C         37.66554        65.64102        -1.32195
C         36.45233        64.87390        -0.95262
C         37.70792        67.09183        -1.05906
C         36.55739        67.74112        -0.68886
C         37.82500        69.94847        -0.64170
C         36.60336        69.16916        -0.20292
C         37.80885        71.32569        -0.45671
C         36.58169        72.02957        -0.18046
C         37.90021        74.07366         0.39838
C         36.63331        73.42986         0.21436
C         40.28440        39.94412        -0.29334
C         40.29783        41.29923        -0.17134
C         39.01747        42.05499         0.14644
C         40.30832        44.18845        -0.30780
C         39.04798        43.52354        -0.24079
C         40.36530        45.64825        -0.69250
C         39.07761        46.39286        -0.51448
C         40.30543        48.50393        -0.28222
C         39.10037        47.79747        -0.53933
C         40.25860        49.93120        -0.06897
C         39.03449        50.59465        -0.08042
C         40.19069        52.78086        -0.01863
C         38.95962        51.99598         0.47110
C         40.17541        54.21012         0.54747
C         38.92775        54.92599         0.11049
C         40.20687        57.03139        -0.15860
C         38.95260        56.30449        -0.14679
C         40.20580        58.41251        -0.49787
C         38.96040        59.10943        -0.74657
C         40.24145        61.30053        -0.59354
C         38.93858        60.55644        -0.81404
C         40.22933        62.66317        -1.27344
C         38.94738        63.40669        -1.33990
C         40.24144        65.59655        -1.21078
C         38.97666        64.90038        -1.47932
C         40.25581        67.02901        -1.15614
C         38.98553        67.81902        -1.46147
C         40.26298        69.89872        -0.91967
C         39.05093        69.25037        -0.95747
C         40.34817        71.36030        -0.78526
C         39.03086        72.13417        -0.61958
C         40.36084        74.09980         0.11012
C         39.10169        73.47520        -0.00628
C         42.71760        35.71184         0.31203
C         42.79529        37.06733        -0.22555
C         41.59285        37.77077        -0.29280
C         42.79592        39.88982        -0.25395
C         41.51123        39.19885        -0.76709
C         42.78931        41.39003        -0.40091
C         41.54155        42.05317        -0.26206
C         42.80307        44.16278         0.08516
C         41.50211        43.47514        -0.22299
C         42.75920        45.66481         0.03889
C         41.56068        46.36658        -0.11717
C         42.68775        48.49529         0.41777
C         41.53250        47.79791         0.00064
C         42.70163        49.92381         0.47959
C         41.48308        50.64896         0.24866
C         42.66633        52.78987         0.51578
C         41.48144        52.05408         0.29739
C         42.64776        54.23257         0.48238
C         41.46542        54.93751         0.29524
C         42.66741        57.09308         0.11555
C         41.44153        56.36460         0.11343
C         42.63571        58.47297        -0.22460
C         41.44197        59.10869        -0.57049
C         42.71850        61.29323        -0.92767
C         41.43724        60.51154        -1.12763
C         42.71441        62.71065        -1.09395
C         41.49420        63.42625        -1.23610
C         42.69838        65.53101        -0.97518
C         41.46298        64.84195        -1.12668
C         42.68398        66.97000        -0.57995
C         41.44654        67.70621        -0.98956
C         42.78226        69.80824        -0.64814
C         41.54516        69.18418        -1.26511
C         42.75742        71.15301         0.02971
C         41.57076        72.00130        -0.32076
C         42.85324        74.02409         0.21184
C         41.58608        73.38023        -0.03270
C         45.25670        32.95412         0.64695
C         43.96797        33.51013         0.69313
C         45.46381        35.71092        -0.46594
C         43.64919        34.72772         0.03102
C         45.32773        37.12062        -0.41049
C         44.05619        37.73786        -0.50529
C         45.30547        39.97552        -0.45666
C         44.04421        39.21860        -0.82547
C         45.25584        41.37506        -0.49182
C         44.01669        42.07142        -0.49929
C         45.26806        44.25800        -0.16084
C         44.00422        43.57853        -0.65290
C         45.21662        45.64061         0.20792
C         43.97189        46.32978         0.31176
C         45.19605        48.47338         0.74299
C         43.90331        47.71857         0.86753
C         45.14240        49.91796         1.17939
C         43.89615        50.64558         0.72116
C         45.13613        52.77497         0.77029
C         43.90594        52.06880         0.69851
C         45.15974        54.24652         0.87977
C         43.85333        55.02107         0.94309
C         45.13939        57.07275         0.15931
C         43.92636        56.41886         0.34612
C         45.18309        58.54218         0.04639
C         43.86911        59.26814        -0.11348
C         45.15874        61.34470        -0.58090
C         43.90908        60.64971        -0.61062
C         45.16514        62.73090        -0.78018
C         43.95198        63.41724        -0.99988
C         45.16031        65.57872        -1.05921
C         43.92986        64.85728        -1.02115
C         45.17724        66.98221        -0.97266
C         43.96723        67.69233        -0.86612
C         45.23347        69.69424        -0.08071
C         43.95946        69.10146        -0.62982
C         45.25042        71.19944        -0.15377
C         44.06941        71.89854        -0.08093
C         45.32630        73.98951         0.28615
C         44.06439        73.33581         0.11936
C         46.45920        33.59168         0.31046
C         47.77141        35.73782         0.20803
C         46.59290        34.98680         0.01149
C         47.77743        37.15189         0.04274
C         46.55208        37.86684        -0.23000
C         47.76254        40.01913        -0.09514
C         46.54038        39.27946        -0.28694
C         47.77179        41.42090        -0.18058
C         46.54255        42.15245        -0.67263
C         47.70293        44.28748         0.02430
C         46.48203        43.58195        -0.18408
C         47.66697        45.69532         0.17842
C         46.44219        46.36682         0.33279
C         47.65145        48.53126         0.66892
C         46.39517        47.80981         0.57406
C         47.62856        49.95764         0.79821
C         46.40713        50.66349         0.87091
C         47.61498        52.76960         0.52552
C         46.39034        52.07244         0.73837
C         47.58465        54.17317        -0.00485
C         46.43405        54.96622         0.55914
C         47.59827        57.02571        -0.15562
C         46.41262        56.39779         0.17091
C         47.61333        58.41600        -0.74040
C         46.41108        59.23855        -0.36054
C         47.66804        61.32464        -0.77571
C         46.41625        60.60996        -0.52073
C         47.69192        62.70984        -0.86757
C         46.44305        63.50909        -0.57063
C         47.69056        65.58767        -1.27978
C         46.40590        64.79998        -1.38174
C         47.67433        66.96828        -1.25760
C         46.44881        67.70208        -1.00802
C         47.73074        69.75353        -0.54846
C         46.47824        69.03830        -0.64006
C         47.71312        71.13811        -0.11986
C         46.52701        71.85929        -0.01799
C         47.78849        73.95782         0.40136
C         46.53052        73.29108         0.24118
C         48.96336        37.88719         0.24220
C         50.18178        40.02556         0.35713
C         48.98552        39.30279         0.17924
C         50.20004        41.43785         0.31017
C         48.96683        42.14703         0.05705
C         50.17574        44.28074         0.29956
C         48.96441        43.57640         0.08511
C         50.19690        45.71126         0.31462
C         48.93985        46.47004        -0.03591
C         50.09771        48.56594         0.65118
C         48.89260        47.86938         0.52165
C         50.09200        49.98229         0.80286
C         48.85497        50.68225         0.76269
C         50.09299        52.81311         0.50710
C         48.84807        52.09864         0.61353
C         50.10220        54.22765         0.30727
C         48.88119        54.93018         0.13608
C         50.09932        57.04490        -0.08210
C         48.86583        56.32094        -0.04432
C         50.10647        58.46989        -0.30090
C         48.90119        59.17145        -0.52881
C         50.15043        61.25588        -0.84115
C         48.91559        60.56605        -0.74943
C         50.16761        62.65210        -1.41171
C         48.90402        63.44192        -1.14204
C         50.19547        65.52423        -1.73286
C         48.91237        64.81860        -1.33484
C         50.21186        67.00628        -1.36874
C         48.92109        67.76836        -1.56313
C         50.18107        69.85059        -0.89422
C         48.92692        69.12716        -0.90256
C         50.18692        71.19959        -0.48268
C         49.01977        71.76571         0.28451
C         50.23695        73.97383         0.40570
C         48.99690        73.28177         0.32535
C         51.40193        42.16275         0.48910
C         52.63369        44.30592         0.58506
C         51.42130        43.57335         0.46532
C         52.65270        45.71432         0.57145
C         51.38561        46.39951         0.45935
C         52.58528        48.51800         0.99091
C         51.39999        47.89583         0.28366
C         52.54265        50.01652         1.20530
C         51.30294        50.71802         0.87710
C         52.56941        52.82746         0.68501
C         51.32119        52.12090         0.69224
C         52.57655        54.23176         0.47802
C         51.33706        54.93817         0.29911
C         52.56130        57.07888         0.14175
C         51.32605        56.35245         0.11187
C         52.55972        58.48747        -0.01686
C         51.33936        59.18805        -0.27012
C         52.61726        61.31053        -0.55220
C         51.35558        60.58771        -0.56230
C         52.64895        62.70725        -0.79257
C         51.43147        63.42843        -1.09978
C         52.74175        65.51114        -1.55113
C         51.44185        64.78219        -1.31335
C         52.70735        66.96576        -1.03787
C         51.39720        67.71584        -1.27639
C         52.66019        69.93050        -1.54758
C         51.39199        69.15552        -1.19799
C         52.65256        71.39586        -1.11009
C         51.36182        72.04458        -0.63928
C         52.68496        74.02830         0.02623
C         51.43495        73.36611         0.01828
C         53.87443        46.45454         0.61739
C         55.06336        48.59173         1.08169
C         53.91164        47.85994         0.83063
C         55.02869        49.99192         1.66939
C         53.79989        50.74864         1.23436
C         55.04830        52.83346         0.89487
C         53.80730        52.11261         0.92292
C         55.05623        54.23669         0.65640
C         53.80954        54.95178         0.45721
C         55.01392        57.10616         0.35487
C         53.80006        56.36697         0.29773
C         55.01499        58.50601         0.33073
C         53.78974        59.22522         0.05305
C         55.14812        61.29169        -0.31800
C         53.80641        60.60277        -0.21885
C         55.07024        62.79263        -0.24420
C         53.88427        63.45027        -0.63655
C         55.12232        65.57427        -0.74659
C         53.93475        64.83971        -0.91253
C         55.26676        66.87668        -1.52542
C         53.92630        67.74773        -1.61776
C         55.19876        69.96048        -1.21127
C         53.91298        69.18942        -1.01589
C         55.14670        71.35723        -1.01240
C         53.91984        72.06206        -0.78552
C         55.14702        74.23583        -0.17753
C         53.88714        73.41139        -0.35820
C         56.28570        50.74957         1.37335
C         57.51473        52.85240         1.01957
C         56.29090        52.11692         1.08012
C         57.51912        54.24762         0.85609
C         56.28145        54.93068         0.65167
C         57.40630        57.10015         1.12918
C         56.34196        56.39334         0.29718
C         57.42913        58.59159         0.85717
C         56.23755        59.23332         0.57025
C         57.45205        61.45981         0.69423
C         56.12818        60.72977         0.70315
C         57.44439        62.83816         0.47387
C         56.24116        63.52516         0.02589
C         57.45591        65.69565         0.14250
C         56.27265        64.92757        -0.21095
C         57.43279        67.08404        -0.07150
C         56.57077        67.70593        -1.17223
C         57.60588        69.93769        -0.83676
C         56.42314        69.23479        -1.06316
C         57.71357        71.37062        -1.05009
C         56.36723        72.16484        -1.10217
C         57.62285        74.20347        -0.52983
C         56.42296        73.55553        -0.63096
C         58.74320        55.01013         0.89664
C         59.91393        57.17547         1.03217
C         58.74021        56.40269         0.97586
C         59.88951        58.59497         1.08555
C         58.64765        59.32389         1.02545
C         59.88585        61.48087         1.18417
C         58.66384        60.75016         0.98501
C         59.79483        62.90722         1.25267
C         58.61128        63.61334         0.79801
C         59.67941        65.79710         1.45922
C         58.58198        65.01736         0.73923
C         59.74650        67.25343         1.04640
C         58.52399        67.91611         0.45720
C         60.00996        69.97000        -0.06647
C         58.69434        69.32258        -0.05485
C         60.09125        71.35729        -0.32310
C         58.90520        72.09788        -0.62115
C         60.11798        74.19354        -0.35943
C         58.90202        73.51308        -0.57670
C         61.09243        59.32714         1.06052
C         62.42161        61.33560         0.89827
C         61.14164        60.73462         1.13038
C         62.71125        62.63581         1.32500
C         60.89146        63.69665         1.68581
C         62.32273        65.70312         1.42737
C         61.04150        65.07846         1.44299
C         62.31814        67.13323         1.20482
C         61.07554        67.89105         0.88500
C         62.50207        69.90695         0.34929
C         61.25063        69.12154         0.01804
C         62.57141        71.30601        -0.08923
C         61.32270        72.06904        -0.22888
C         62.56658        74.18917         0.06378
C         61.34634        73.48905        -0.22314
C         63.63503        63.57918         0.86759
C         64.85184        65.61689         0.92592
C         63.59836        64.97547         1.18717
C         65.24166        66.89909         1.36282
C         63.39737        67.95437         1.46476
C         64.90789        69.92526         1.02721
C         63.59668        69.28186         0.91964
C         64.96751        71.32422         0.84753
C         63.84241        72.06157         0.23938
C         64.93244        74.20377         0.79777
C         63.76630        73.53269         0.37712
C         66.26438        67.76104         0.97274
C         67.34035        69.93442         1.33550
C         66.15561        69.19766         1.18369
C         67.35129        71.35032         1.41238
C         66.14560        72.05918         1.12500
C         67.32772        74.18360         1.41593
C         66.13145        73.49951         1.10035
C         68.53340        72.08912         1.68984
C         68.50422        73.48043         1.70092
O         52.34249        49.01438         2.32248
O         44.46903        35.00344        -1.10877
O         39.44578        62.70933        -2.51226
O         46.10420        54.69782         1.95021
O         39.68481        72.05566        -1.91048
O         57.14586        71.88621        -2.29117
O         34.18871        73.22415        -1.37613
O         36.43157        59.78983        -2.29906
O         31.89856        58.81197        -1.78635
O         60.30656        68.09568         2.11818
O         64.37821        67.47796         2.32429
O         44.51347        59.17017         1.20419
O         63.57247        71.58747        -1.13442
O         61.89611        63.06570         2.40247
O         51.82947        72.17733        -2.04640
O         58.09588        69.02717         1.32565
O         37.88654        48.29773        -2.45998
O         28.35367        72.13473        -0.72244
O         55.46408        66.29913        -2.81727
O         38.22066        65.33170        -2.67498
O         41.23316        60.39112        -2.55984
H         41.99455        59.91310        -2.94782
O         45.03330        49.89153         2.65353
H         44.37201        49.18371         2.86608
O         38.94318        67.94886        -2.91978
H         38.73386        67.04496        -3.26982
O         29.44192        64.98542        -1.76945
H         28.58157        64.97606        -2.24792
O         43.57275        55.24776         2.36516
H         44.44770        55.40473         2.79335
O         41.39074        39.18703        -2.21255
H         42.29341        39.07436        -2.59855
O         47.30318        54.06610        -1.44368
H         48.09782        53.69191        -1.87909
O         52.65656        69.99402        -2.98689
H         52.07174        70.74598        -3.23742
O         40.56169        45.64152        -2.15935
H         40.01311        46.36026        -2.54550
O         52.79859        66.79766         0.39618
H         52.81578        67.69671         0.80569
O         43.88997        43.86967        -2.06457
H         44.62988        43.40930        -2.51874
O         33.09422        61.23343         1.45845
H         32.42692        61.80493         1.89724
O         51.58766        48.13981        -1.14564
H         50.85124        47.66769        -1.60528
O         42.84742        39.64074         1.17991
H         42.14025        40.17143         1.60329
O         56.78854        56.47161        -1.09193
H         56.09264        56.07655        -1.65743
O         38.09814        50.68982        -2.10275
H         38.05553        49.88963        -2.73657
O         44.00825        39.32419        -2.29403
H         44.84359        38.94508        -2.64094
O         27.05879        65.57276        -1.36322
H         26.22635        66.08310        -1.26465
O         43.05566        43.83833         1.49656
H         42.38732        44.30923         2.03779
O         53.68741        67.91934        -3.01024
H         54.43480        67.45876        -3.48161
O         40.44101        61.49266         0.82092
H         39.68044        62.02874         1.15554
O         55.53386        60.97653         2.01517
H         56.13581        60.60936         2.69574
O         50.21476        65.50709        -3.21581
H         51.17050        65.63365        -3.47324
O         27.85244        58.56219        -0.22157
H         27.96580        58.63271        -1.19166
O         34.07005        51.64322         1.72398
H         34.14180        52.48700         2.21833
O         61.48554        68.59333        -1.33547
H         61.67350        69.35240        -1.92881
O         22.39121        70.22129        -0.01662
H         23.13739        70.48160        -0.60616
O         32.28963        71.53185         1.88045
H         31.70676        71.90015         2.57716
O         41.69283        69.29890        -2.72140
H         40.83759        69.00370        -3.11653
O         53.73491        69.18896         0.43812
H         54.59884        68.99059         0.85911
O         47.50272        58.21068        -2.19995
H         47.70479        59.06766        -2.63383
O         25.09621        70.33111        -0.84062
H         25.82435        70.89686        -1.17995
O         27.55056        65.10762         2.23626
H         27.02544        64.60610         2.89317
O         36.75109        69.03178         1.26552
H         36.69413        69.93326         1.64876
O         46.49726        63.89332         0.83177
H         46.48609        63.07506         1.37160
O         57.01549        56.95979         2.52533
H         57.74918        57.29694         3.08040
O         42.62954        66.94281         0.91639
H         43.46717        66.53556         1.22858
O         40.10828        54.16944         2.02082
H         41.01813        54.27790         2.37728
O         38.06821        62.96877         0.81521
H         37.27596        62.69395         1.32552
O         49.23974        71.34100         1.68717
H         48.40728        71.51334         2.17737
O         46.69285        42.26384        -2.14230
H         47.56027        42.69105        -2.31220
O         54.93080        49.84341         3.13846
H         54.04308        49.44843         3.31275
O         45.21860        69.39200         1.35847
H         44.35113        69.72373         1.69767
O         43.69085        47.52597         2.35571
H         44.36972        46.87979         2.65118
O         59.26143        65.78635         2.85553
H         59.63329        66.60394         3.26133
O         37.88426        41.39727        -0.41956
H         38.01134        41.35213        -1.38954
O         46.29119        64.38854        -2.77647
H         46.31836        65.19331        -3.33550
O         32.20627        71.65632        -1.77595
H         32.66489        72.44425        -2.15373
O         49.04348        46.67267        -1.50588
H         48.20036        47.07866        -1.80311
O         57.48860        67.53899        -2.28487
H         57.00174        66.90401        -2.89996
O         33.56787        50.71990        -1.77177
H         34.32492        51.03784        -2.30562
O         40.07956        52.89577        -1.45518
H         39.57429        52.12118        -1.80526
O         42.63202        70.83201         1.48465
H         42.61982        71.68874         1.96471
O         30.21743        65.49505         1.74222
H         30.91304        66.03752         2.16833
O         54.99482        75.50490        -0.82859
H         54.86565        75.34235        -1.78567
O         38.96484        51.82999         1.90899
H         39.20156        52.70596         2.30858
O         48.85307        68.01741        -3.01817
H         49.21153        67.20477        -3.45445
O         52.92944        65.44233        -2.99045
H         53.90110        65.67696        -3.15034
O         55.68706        60.97189        -1.63554
H         55.13965        61.42992        -2.30761
O         50.19831        62.47254        -2.87228
H         50.17847        63.37702        -3.26819
H         23.57035        74.74679         3.72063
H         25.89456        74.88178         2.90475
H         28.20169        75.02626         2.15008
H         30.58336        75.18179         1.45026
H         32.91581        75.29970         0.72180
H         35.49637        75.10250         0.98650
H         37.91488        75.09712         0.80211
H         40.40677        75.14283         0.45767
H         42.86182        75.10459         0.41860
H         45.33920        75.07485         0.46791
H         47.79059        75.05201         0.52407
H         50.23857        75.03706         0.69179
H         52.72986        75.06354         0.39572
H         55.25367        74.46473         0.92008
H         57.62891        75.26483        -0.23762
H         60.11841        75.29138        -0.28845
H         62.53340        75.28766         0.12231
H         64.92789        75.30203         0.86550
H         67.33263        75.28305         1.42294
H         22.22012        69.28830         1.82778
H         21.14295        71.30251         2.74827
H         21.40924        73.51937         3.85928
H         24.68955        65.17279         1.39917
H         23.41667        67.26028         1.46625
H         26.93794        60.81015         0.43465
H         25.81628        62.98772         0.86246
H         29.38345        56.47999         0.24458
H         28.86893        58.97327         1.51226
H         31.79335        52.22761         0.16584
H         30.57903        54.35480         0.06651
H         34.42302        47.93244        -0.54561
H         33.22684        49.95455         0.11012
H         36.90952        43.70308        -0.28906
H         35.68958        45.83619        -0.30066
H         39.32538        39.40528        -0.23496
H         38.87442        42.01958         1.26675
H         41.89144        35.49230         1.00452
H         40.65915        37.23599        -0.05523
H         45.36112        31.94315         1.07308
H         43.20468        33.02327         1.31658
H         47.38815        33.03699         0.51204
H         48.69991        35.23087         0.50838
H         49.89557        37.34890         0.47007
H         51.11988        39.48047         0.53917
H         52.34033        41.61147         0.64950
H         53.58132        43.75324         0.67017
H         54.82245        45.89526         0.62463
H         56.04403        48.10201         0.98138
H         57.24591        50.23281         1.52403
H         58.46460        52.31943         1.17455
H         59.70138        54.46756         0.90503
H         60.89172        56.67080         0.98777
H         62.04162        58.77449         0.99511
H         63.17621        60.75162         0.35092
H         64.47989        63.22280         0.25905
H         65.59900        65.02490         0.37444
H         67.16465        67.37839         0.46883
H         68.29289        69.39312         1.43667
H         69.46875        71.55232         1.90293
H         69.42240        74.03970         1.93011
