         204
 CSIRO Nanostructure Databank - Neutral Graphene Oxide Data Set
C        -11.16645         0.64295        -0.05409
C         -9.92014         1.37288        -0.02383
C         -8.68902         0.64753        -0.28359
C         -7.43508         1.31792        -0.15898
C         -6.21943         0.56978        -0.38157
C         -4.90864         1.23064        -0.18078
C         -3.67569         0.60133        -0.71732
C         -2.44056         1.37344        -0.70197
C         -1.20558         0.68464        -0.96195
C          0.00651         1.41438        -0.93886
C          1.24874         0.72530        -1.42974
C          2.51983         1.44441        -1.08810
C          3.79292         0.69630        -1.38096
C          5.03531         1.44911        -0.99091
C          6.25866         0.71806        -0.76895
C          7.48340         1.40646        -0.60436
C          8.67958         0.72103        -0.26576
C          9.91034         1.45159        -0.10262
C         11.10602         0.72023         0.16325
C         -9.88777         2.73465         0.21286
C         -8.65123         3.45619         0.33342
C         -7.39782         2.71224         0.19998
C         -6.18489         3.39371         0.26927
C         -4.89687         2.69614         0.08809
C         -3.73781         3.51105        -0.44047
C         -2.43398         2.75138        -0.44586
C         -1.21057         3.47446        -0.37285
C          0.02357         2.78979        -0.61969
C          1.26601         3.50805        -0.55579
C          2.50870         2.80234        -0.79487
C          3.74834         3.54057        -0.72495
C          4.99489         2.84002        -0.91437
C          6.25650         3.59934        -1.03177
C          7.55588         2.85121        -0.86032
C          8.76302         3.59840        -0.44677
C          9.91184         2.86923        -0.14077
C         -8.65469         4.83057         0.51650
C         -7.43816         5.56372         0.85759
C         -6.10658         4.78254         0.71342
C         -4.85686         5.54780         0.53484
C         -3.66631         4.89190         0.16608
C         -2.43192         5.57516         0.19810
C         -1.19595         4.87795        -0.07069
C          0.03392         5.57233         0.01870
C          1.27441         4.88290        -0.22020
C          2.51989         5.58587        -0.09141
C          3.73042         4.90341        -0.36623
C          5.02293         5.58448        -0.12825
C          6.22966         5.11423        -0.90905
C          7.51587         5.74020        -0.39391
C          8.69586         5.01576        -0.30287
C         -7.34207         7.02465         0.80655
C         -6.12455         7.66761         0.90500
C         -4.86465         6.94480         0.78519
C         -3.63856         7.65555         0.76192
C         -2.41399         6.96430         0.52776
C         -1.17356         7.66741         0.56540
C          0.04835         6.97519         0.33727
C          1.28335         7.67958         0.42636
C          2.52598         6.98978         0.25758
C          3.73244         7.71356         0.38287
C          5.02567         7.02596         0.28368
C          6.27199         7.80807         0.11511
C          7.46824         7.14284        -0.10851
C         -6.06547         9.10955         1.03838
C         -4.88155         9.77554         1.10407
C         -3.61925         9.08287         0.97126
C         -2.41042         9.76088         1.01299
C         -1.16673         9.07869         0.83285
C          0.05471         9.76614         0.88077
C          1.28321         9.09006         0.69155
C          2.51404         9.79675         0.73199
C          3.72989         9.12724         0.56843
C          4.99004         9.84313         0.56606
C          6.18740         9.22558         0.32790
C        -11.18999        -0.70476        -0.24488
C         -9.97022        -1.44361        -0.48967
C         -8.74546        -0.71548        -0.61784
C         -7.54703        -1.41959        -1.19294
C         -6.24777        -0.72005        -0.86889
C         -4.99199        -1.41717        -1.21169
C         -3.69797        -0.71133        -1.08982
C         -2.45986        -1.45857        -1.54683
C         -1.19082        -0.72397        -1.18638
C          0.03865        -1.43586        -1.08246
C          1.26861        -0.74038        -1.06710
C          2.50162        -1.41851        -0.85546
C          3.74892        -0.72934        -0.88378
C          4.95074        -1.40010        -0.56657
C          6.20972        -0.69502        -0.53205
C          7.40608        -1.39025        -0.18057
C          8.64971        -0.68509        -0.09239
C          9.86943        -1.39408         0.18692
C         11.09253        -0.64899         0.28117
C         -9.95309        -2.83816        -0.48815
C         -8.71125        -3.56946        -0.53015
C         -7.51535        -2.88771        -0.83420
C         -6.27141        -3.65177        -0.99734
C         -4.97552        -2.92493        -1.21816
C         -3.68393        -3.61523        -0.94408
C         -2.47720        -2.91036        -1.06851
C         -1.22791        -3.56810        -0.84377
C          0.01920        -2.86496        -0.88540
C          1.23837        -3.54020        -0.61813
C          2.47819        -2.82837        -0.58853
C          3.69312        -3.51486        -0.29919
C          4.92205        -2.79988        -0.25353
C          6.12974        -3.48429         0.11278
C          7.37029        -2.77812         0.13259
C          8.60038        -3.48863         0.42975
C          9.83935        -2.77570         0.38333
C         -8.69876        -4.93759        -0.14776
C         -7.49036        -5.66164         0.04252
C         -6.23786        -5.07173        -0.49571
C         -4.93402        -5.67733        -0.12426
C         -3.69246        -4.97340        -0.47181
C         -2.46298        -5.62336        -0.29609
C         -1.22376        -4.96259        -0.54191
C          0.01669        -5.65235        -0.38657
C          1.23454        -4.95772        -0.38637
C          2.46972        -5.65655        -0.12835
C          3.67938        -4.93117        -0.05571
C          4.89648        -5.60203         0.30812
C          6.09183        -4.86223         0.44669
C          7.28050        -5.50876         1.10996
C          8.57054        -4.82973         0.78612
C         -7.46140        -6.89533         0.66044
C         -6.17794        -7.55863         1.05868
C         -4.94289        -6.90774         0.47884
C         -3.68870        -7.64472         0.72456
C         -2.42277        -6.97702         0.28894
C         -1.26320        -7.84566        -0.01972
C          0.03396        -7.12327        -0.30188
C          1.26974        -7.81785         0.05652
C          2.46937        -7.07214         0.11882
C          3.69242        -7.74867         0.41972
C          4.89573        -7.01799         0.52138
C          6.14349        -7.71156         0.78500
C          7.30870        -7.00107         0.95625
C         -6.16123        -9.05999         0.84523
C         -5.00779        -9.76699         0.79872
C         -3.70383        -9.12759         0.78152
C         -2.52150        -9.83667         0.77748
C         -1.24062        -9.22113         0.51606
C         -0.02469        -9.87666         0.58885
C          1.23197        -9.19747         0.39275
C          2.46506        -9.86435         0.63046
C          3.67697        -9.17294         0.62026
C          4.93870        -9.84774         0.82576
C          6.11127        -9.15843         0.87585
O         -4.63564         1.76191         1.18188
O         -6.73067         4.99776         2.01938
O          5.23598         5.91370         1.26848
O         -6.36020        -4.79945        -1.93594
O         -0.76897        -7.74736        -1.38409
O         -2.78669        -7.01414         1.71743
O          7.07134        -5.28628         2.58125
H          6.22087        -5.71948         2.81141
O         -7.69941        -1.36246        -2.66094
H         -6.88815        -1.78515        -3.03520
O          6.03171         5.63248        -2.25460
H          6.59407         5.08318        -2.84788
O         -4.08315         3.73001        -1.85357
H         -3.33111         4.19481        -2.27816
O         -6.06962        -7.36834         2.51686
H         -5.15439        -7.61044         2.77729
O          7.04116         3.20674        -2.21096
O          3.88284         0.57170        -2.87606
H          4.25245         1.41620        -3.21517
O         -5.04364        -2.19029        -2.49922
O          1.16109         0.75775        -2.90675
H          2.05970         0.49735        -3.23610
O         -2.47638        -1.50644        -3.00868
H         -3.36775        -1.85028        -3.26444
H         12.02595        -1.19431         0.48340
H         12.05027         1.27367         0.27132
H         10.83834         3.40580         0.11408
H          9.60975         5.53831         0.02166
H          8.41610         7.69994        -0.04140
H          7.11365         9.81809         0.29117
H          4.96065        10.93113         0.72592
H          2.50516        10.88428         0.89600
H          0.06137        10.84932         1.07267
H         -2.39950        10.84845         1.18007
H         -4.86547        10.86722         1.23836
H         -7.01479         9.65912         1.12142
H         -8.26886         7.61515         0.74382
H         -9.60243         5.38506         0.44042
H        -10.83035         3.28269         0.36207
H        -12.10022         1.19754         0.12054
H        -12.14063        -1.25711        -0.21575
H        -10.88766        -3.39385        -0.32086
H         -9.64748        -5.41116         0.14644
H         -8.39859        -7.33739         1.03179
H         -7.12531        -9.59046         0.84806
H         -5.03864       -10.86571         0.73197
H         -2.55207       -10.93012         0.90530
H          0.00442       -10.92708         0.91685
H          2.45889       -10.94477         0.83882
H          4.93336       -10.94202         0.93810
H          7.06152        -9.68918         1.03466
H          8.24929        -7.53220         1.16797
H          9.51207        -5.35566         1.00537
H         10.77300        -3.31688         0.59699
