         228
 CSIRO Nanostructure Databank - Neutral Graphene Oxide Data Set
C        -11.18034         0.81646        -0.46585
C         -9.96099         1.58375        -0.24192
C         -8.76639         0.87191        -0.13422
C         -7.55759         1.55632         0.44303
C         -6.24490         0.83280         0.23878
C         -5.00175         1.61354         0.38212
C         -3.68866         0.86996         0.45149
C         -2.46831         1.58605         0.89469
C         -1.27381         0.90741         0.90449
C         -0.01394         1.59313         1.02977
C          1.21001         0.92687         0.88290
C          2.47101         1.60735         0.93678
C          3.68300         0.83674         1.00394
C          4.98424         1.45896         0.63545
C          6.30413         0.73956         0.47600
C          7.41634         1.47440         0.16607
C          8.60631         0.88311        -0.51094
C          9.92258         1.59303        -0.53723
C         11.12312         0.74510        -0.74319
C         -9.95971         3.01348        -0.18159
C         -8.75079         3.74689        -0.17376
C         -7.47739         2.99315        -0.04074
C         -6.20427         3.73771         0.18758
C         -5.08678         3.03288         0.92899
C         -3.77101         3.77138         0.84007
C         -2.56406         3.03342         1.35162
C         -1.27464         3.79653         1.22759
C         -0.02147         3.02458         1.41759
C          1.29843         3.74831         1.55550
C          2.54064         3.04005         1.12279
C          3.75264         3.70113         1.00415
C          4.96570         2.97712         0.54637
C          6.25584         3.70150         0.50085
C          7.52949         2.91252         0.63581
C          8.78723         3.65776         0.22171
C          9.96228         2.98442        -0.02789
C         -8.66746         5.13242        -0.33488
C         -7.43039         5.87475        -0.25461
C         -6.19208         5.20797         0.14337
C         -4.98326         5.87087         0.28376
C         -3.73525         5.14100         0.60415
C         -2.49745         5.86473         0.72780
C         -1.28842         5.18276         1.07347
C         -0.02716         5.97185         1.29050
C          1.27537         5.28691         1.77158
C          2.58141         5.98954         1.31075
C          3.84871         5.17448         1.10460
C          5.04596         5.83110         0.53207
C          6.27354         5.08031         0.44380
C          7.53619         5.79418         0.26391
C          8.73663         5.09146         0.21365
C         -7.40589         7.22368        -0.53267
C         -6.18465         8.05983        -0.29700
C         -4.91509         7.26824        -0.07454
C         -3.69648         7.89864        -0.19313
C         -2.51203         7.37283         0.58322
C         -1.19276         7.91501         0.08950
C          0.03129         7.35871         0.68265
C          1.33817         7.95004         0.32405
C          2.55164         7.31874         0.64237
C          3.78391         7.92544         0.25292
C          5.03088         7.20519         0.29404
C          6.27443         7.88596        -0.02271
C          7.48105         7.20486         0.03693
C         -5.99800         9.15818        -1.31710
C         -4.78092         9.68517        -1.55317
C         -3.57958         9.13964        -0.93012
C         -2.34717         9.71307        -1.14345
C         -1.13225         9.11280        -0.63566
C          0.11606         9.75328        -0.84561
C          1.33185         9.19587        -0.38507
C          2.56497         9.85995        -0.61439
C          3.77618         9.24888        -0.29358
C          5.03229         9.91671        -0.55782
C          6.22335         9.27921        -0.39394
C        -11.17740        -0.54165        -0.58394
C         -9.94661        -1.31411        -0.65908
C         -8.69713        -0.51296        -0.62808
C         -7.36026        -1.20386        -0.64870
C         -6.17377        -0.50672        -0.07086
C         -4.94698        -1.24384         0.14582
C         -3.75310        -0.60224         0.46402
C         -2.53536        -1.33731         0.72507
C         -1.26055        -0.59941         1.07105
C         -0.06895        -1.24921         0.38247
C          1.21337        -0.48700         0.43201
C          2.47837        -1.31136         0.65141
C          3.55841        -0.53241         1.23366
C          5.33904        -1.65728         0.79454
C          6.52506        -0.77977         0.56830
C          7.36699        -1.33919        -0.55396
C          8.57454        -0.55967        -0.91812
C          9.81209        -1.32139        -1.17694
C         11.05861        -0.57323        -1.07071
C         -9.92899        -2.68299        -0.73192
C         -8.69039        -3.47454        -0.91331
C         -7.33848        -2.68894        -0.83942
C         -6.15577        -3.44193        -0.45204
C         -5.01347        -2.71819         0.16207
C         -3.73811        -3.46738         0.40958
C         -2.49664        -2.70471         0.63108
C         -1.22389        -3.47727         0.90898
C         -0.00564        -2.73976         0.39042
C          1.28760        -3.46222         0.47248
C          2.48334        -2.80820         0.61784
C          3.75814        -3.52706         0.36749
C          5.01205        -2.79784         0.12761
C          6.06848        -3.44247        -0.69608
C          7.38456        -2.79678        -0.73601
C          8.51556        -3.45438        -1.19758
C          9.75281        -2.69219        -1.33223
C         -8.61481        -4.90443        -0.61145
C         -7.40125        -5.57980        -0.60224
C         -6.16119        -4.82124        -0.56963
C         -4.88254        -5.56172        -0.48798
C         -3.58249        -4.78906        -0.30268
C         -2.41727        -5.59327         0.23799
C         -1.24778        -4.93366         0.50900
C         -0.01002        -5.69799         0.58502
C          1.23349        -4.94337         0.14550
C          2.51034        -5.62381         0.55739
C          3.74265        -4.88591         0.18859
C          4.76427        -5.69343        -0.57435
C          6.01849        -4.92451        -0.95068
C          7.30556        -5.63324        -1.13697
C          8.46281        -4.89921        -1.34373
C         -7.35380        -7.03803        -0.48699
C         -6.20711        -7.77057        -0.27790
C         -4.92063        -7.02651        -0.19590
C         -3.74571        -7.57529         0.49374
C         -2.50205        -7.01869         0.45194
C         -1.30756        -7.86319         0.86605
C         -0.01752        -7.06517         0.66964
C          1.24628        -7.83894         0.74957
C          2.54894        -7.09499         0.76257
C          3.83452        -7.84855         0.49731
C          5.02919        -7.08134        -0.02005
C          6.17219        -7.79436        -0.65312
C          7.26253        -7.08275        -1.11021
C         -6.15687        -9.21213        -0.52270
C         -5.05444       -10.02722        -0.58548
C         -3.75015        -9.66155        -0.04090
C         -2.47143        -9.85861        -0.49048
C         -1.26562        -9.20529         0.05749
C         -0.06257        -9.81046        -0.16968
C          1.23118        -9.27998         0.33049
C          2.52382        -9.89894        -0.05509
C          3.73599        -9.27694         0.09447
C          4.96822        -9.92194        -0.33418
C          6.10321        -9.23742        -0.66427
O         -0.20912         7.14017         2.14868
O         -3.17246        -4.38637        -1.64296
H         -3.33865        -5.15668        -2.23356
O         -5.46563         2.97315         2.32653
H         -4.63789         2.95212         2.86513
O          4.73054         2.16421        -0.65738
O          1.21670         5.46892         3.19811
H          2.12723         5.34310         3.54817
O         -7.91283        -3.10853        -2.09864
O         -3.89970        -8.82554         1.09293
O         -1.06086        -3.49927         2.37282
H         -1.76338        -4.07065         2.75178
O          0.66583         3.13133         2.72706
O          7.69378         2.75577         2.10637
H          7.87138         3.64786         2.47601
O          7.43535        -0.68886        -1.85436
O          1.20581        -5.00250        -1.31411
H          0.54609        -4.35014        -1.63587
O         -6.53237         3.17383        -1.13405
O          4.90553        -7.40119         1.38966
O         -0.28821        -1.99429        -0.84599
O         -4.70151        -3.35539         1.49317
O         -4.16516         1.48318        -0.80837
O          7.36834        -0.95631         1.75687
H          6.80904        -0.77404         2.54332
O          4.56968        -1.23107         1.90023
O         -6.43277         8.74867         0.98885
H         -5.56225         9.05617         1.32439
O         -7.78810         1.62445         1.88632
H         -7.74222         0.71868         2.25603
O         -4.63116        -6.52587        -1.57584
O          5.68645        -3.97094        -2.01845
O         -1.02762        -0.76019         2.50275
H         -1.07438        -1.72886         2.71530
O          4.07742        -6.00098        -1.82914
H          4.12797        -5.18640        -2.38276
O         -1.42132        -8.19604         2.26379
H         -0.56939        -8.62912         2.51588
O         -2.72575         7.94436         1.92809
H         -1.91292         7.72099         2.44959
O          2.57930        -6.17000         1.90880
O         -2.78223         2.88205         2.83612
H         -1.90422         2.71292         3.24686
O          9.00805         1.63514        -1.71840
O          3.55570         5.83639         2.39997
O         -7.85827        -0.54480        -1.85702
O          2.10615        -0.74259        -0.67251
O          1.18944        -8.90189         1.77140
H         11.99648        -1.13058        -1.21897
H         12.10843         1.22293        -0.63153
H         10.89350         3.55769        -0.16650
H          9.66467         5.64060        -0.00899
H          8.41985         7.74640        -0.15331
H          7.16917         9.80208        -0.59795
H          5.00181        10.96149        -0.89988
H          2.56132        10.85135        -1.09050
H          0.13968        10.71733        -1.37381
H         -2.26504        10.63380        -1.73965
H         -4.66128        10.53534        -2.24236
H         -6.89454         9.59167        -1.78567
H         -8.32888         7.73725        -0.84330
H         -9.59116         5.70546        -0.51134
H        -10.91593         3.55035        -0.27312
H        -12.13633         1.36064        -0.48306
H        -12.12935        -1.08352        -0.68799
H        -10.88242        -3.23329        -0.69097
H         -9.54651        -5.45219        -0.40341
H         -8.30601        -7.57395        -0.62748
H         -7.10783        -9.64363        -0.87775
H         -5.17949       -11.02869        -1.02792
H         -2.31138       -10.53435        -1.34602
H         -0.03464       -10.76876        -0.71385
H          2.49442       -10.91741        -0.47326
H          4.95154       -11.01653        -0.44664
H          6.98328        -9.79390        -1.02065
H          8.14825        -7.63107        -1.46801
H          9.40474        -5.43376        -1.54175
H         10.68365        -3.24996        -1.51965
