         300
 CSIRO Nanostructure Databank - Neutral Graphene Oxide Data Set
C         31.13971        31.89436         2.33313
C         31.06488        33.12631         2.03112
C         30.91804        36.26492         2.25477
C         30.69262        37.34981         1.70617
C         30.19618        40.36240         0.08713
C         30.19553        41.54452        -0.29752
C         33.36488        28.86062         2.18191
C         32.38461        29.61868         2.40297
C         33.53515        31.72506         2.25808
C         32.20227        31.00261         2.48101
C         33.47928        33.26020         2.11793
C         32.19526        33.99643         2.60930
C         33.16767        36.18234         1.33826
C         32.15917        35.47042         2.24318
C         32.93356        37.55186         0.83285
C         31.66672        38.28234         1.11907
C         32.56222        40.30519        -0.25429
C         31.42094        39.62250         0.49715
C         32.52820        41.80718        -0.27419
C         31.30980        42.45210        -0.44985
C         32.53773        44.53129        -0.36529
C         31.48592        43.88202        -0.47658
C         35.68050        27.18442         0.43875
C         35.64677        28.60820         0.82767
C         34.62403        29.36834         1.60170
C         35.38182        31.56818         0.45833
C         34.64000        30.90443         1.59787
C         35.27297        33.06016         0.27456
C         34.42101        33.93452         1.17165
C         35.32732        35.99571         0.05106
C         34.06810        35.27260         0.50074
C         35.32993        37.52447         0.07056
C         33.88426        38.02588        -0.25711
C         35.11758        40.36741        -0.60725
C         33.83312        39.55864        -0.49063
C         35.09351        41.75651         0.02315
C         33.78213        42.50542         0.13981
C         35.10723        44.79365         0.30264
C         33.80622        44.05190         0.22172
C         35.42416        46.11170        -0.25932
C         37.73855        27.16440        -0.90175
C         36.68023        26.61400        -0.01822
C         37.74891        28.66739        -0.53494
C         36.68453        29.33725        -0.00376
C         37.78858        31.60775        -0.31468
C         36.46475        30.80807        -0.37363
C         37.62827        33.05705        -0.79080
C         36.27401        33.78413        -0.63780
C         37.69752        35.94876        -0.48830
C         36.40930        35.27382        -0.36408
C         37.72281        37.43095        -0.68598
C         36.36845        38.09395        -0.93448
C         37.73393        40.40037        -0.64550
C         36.41910        39.64416        -0.84811
C         37.66654        41.83839        -0.22505
C         36.39711        42.52678         0.19529
C         37.82432        44.82559         0.47063
C         36.44341        44.03178         0.44150
C         37.85595        46.33397        -0.06182
C         36.50288        46.63860        -0.54640
C         40.35440        24.39452        -0.91964
C         39.33515        25.10199        -0.93829
C         40.28437        27.21289        -0.91991
C         39.09659        26.52421        -0.92032
C         40.29218        28.69242        -0.62841
C         38.97340        29.39631        -0.98884
C         40.27020        31.63131        -1.02639
C         38.95740        30.88683        -0.99420
C         40.25452        33.11861        -0.90300
C         38.92121        33.83131        -0.84200
C         40.13350        35.90203         0.02160
C         38.89296        35.26874        -0.51150
C         40.05096        37.38724         0.40198
C         39.00620        38.16122        -0.43773
C         39.95100        40.25170         0.65675
C         39.12401        39.69971        -0.52891
C         40.11547        41.80137         0.59592
C         38.89904        42.57301         0.21355
C         40.24719        44.66027        -0.22371
C         38.88719        44.00995        -0.31302
C         40.38470        46.00359        -0.27084
C         39.20434        46.92885        -0.38562
C         40.48486        48.83513        -1.63237
C         39.61492        48.07720        -1.20107
C         42.98513        24.49231        -0.86790
C         41.65587        25.01754        -0.45020
C         42.87047        27.23518        -1.43356
C         41.60131        26.48121        -1.08540
C         42.83158        28.76762        -1.42188
C         41.53413        29.46252        -1.10984
C         42.77485        31.71270        -1.21384
C         41.57008        30.92772        -0.64670
C         42.70987        33.16938        -0.76358
C         41.52957        33.80288        -0.55623
C         42.73697        35.91794         0.20010
C         41.45675        35.16591         0.02894
C         42.59088        37.26545         0.94231
C         41.41562        38.08975         0.29700
C         42.58728        40.29241         0.80325
C         41.30955        39.53035         0.80437
C         42.61454        41.59772         0.03627
C         41.47580        42.51094         0.53340
C         42.68911        44.27489        -0.92969
C         41.41998        43.75110        -0.35088
C         42.72539        45.75910        -1.22834
C         41.76591        46.56841        -0.35937
C         42.86200        48.80763        -2.05961
C         41.64750        49.54600        -2.03908
C         43.99868        25.15243        -1.08392
C         45.30965        27.26522        -0.66138
C         44.30607        26.55414        -1.51998
C         45.34656        28.76481        -0.74348
C         44.12527        29.54079        -1.16472
C         45.09270        31.64404        -0.21522
C         44.04028        30.99136        -0.77021
C         44.95505        33.09284         0.26204
C         44.02903        33.90191        -0.68375
C         45.26655        35.97818        -0.31915
C         43.90968        35.33026        -0.16054
C         45.12560        37.55258         1.49548
C         43.87450        38.08582         0.90658
C         45.14783        40.33032         1.10562
C         43.88399        39.56403         0.72181
C         45.10496        41.74004         0.53832
C         43.95655        42.31436         0.10450
C         45.11748        44.51933        -0.50158
C         44.01908        43.50656        -0.83228
C         45.22345        45.64243        -1.94753
C         43.91674        46.44978        -1.84973
C         43.67662        47.90244        -1.84295
C         47.65585        27.33291         0.19553
C         46.57577        26.84355        -0.29464
C         47.90297        28.76392        -0.34674
C         46.48459        29.45209         0.01533
C         47.61310        31.70043         0.33244
C         46.42246        30.96881        -0.16606
C         47.57428        33.06511         0.95131
C         46.30310        33.81269         0.63239
C         47.67053        35.96345         0.96521
C         46.46411        35.28505         0.34992
C         47.57884        37.37940         1.60035
C         46.33417        38.12990         1.21457
C         47.67665        40.26574         0.97988
C         46.40837        39.52063         0.58775
C         47.66781        41.75254         0.78891
C         46.38709        42.49874         0.56101
C         47.78849        44.57412        -0.26756
C         46.43015        43.91718         0.01385
C         47.59380        45.69295        -1.20648
C         46.53331        46.21257        -1.58929
C         50.50613        29.22242         0.04009
C         49.08242        29.51456         0.26501
C         50.00116        31.93292         0.13709
C         48.90965        30.98518         0.49125
C         50.16625        33.13505         0.80004
C         48.91780        33.66043         1.54617
C         49.87175        35.91416         2.01512
C         48.80653        35.19300         1.58183
C         50.09626        37.37282         1.72629
C         48.86802        38.14703         1.35404
C         50.09464        40.37638         1.60398
C         48.82143        39.63455         1.34501
C         50.08047        41.85818         1.23467
C         48.99003        42.27660         0.22846
C         50.29631        44.19657        -0.47572
C         49.03208        43.77480        -0.16236
C         51.70562        29.47200         0.14161
C         52.92756        31.54070         0.34200
C         52.97107        30.14530         0.19019
C         52.50827        32.71164         0.43165
C         51.54305        33.67892         0.82466
C         52.64670        36.00658         1.35753
C         51.83498        34.84525         1.54664
C         52.47278        37.22905         1.48402
C         51.39710        38.07055         2.15819
C         52.61645        40.31054         1.52543
C         51.37716        39.58414         1.90446
C         52.57772        41.38880         0.87878
C         51.74507        42.37336         0.39247
C         51.36083        43.43054        -0.28378
O         31.74483        39.56255         1.89385
O         47.07849        44.81138         0.97942
O         47.30965        31.64246        -1.11754
O         40.58351        35.14962         1.22252
O         35.85113        28.87634         2.23716
O         32.89161        39.82190        -1.59421
O         35.59805        33.67099        -1.97583
O         40.39988        32.45010        -2.20752
O         44.07447        38.69191        -0.41222
O         47.64035        35.67756        -0.45279
O         50.92605        35.15884         2.56886
O         33.28756        36.15045         2.83328
O         38.71787        37.66168        -1.77073
O         45.20262        29.25253        -2.12224
O         41.90611        39.98966         2.06376
O         34.40323        32.14480        -0.46726
O         39.26523        42.44140         1.61177
O         48.98222        30.06724         1.62579
O         38.78039        30.12343        -2.22911
O         42.41840        41.17903        -1.30034
O         47.04863        42.45151         1.89657
O         49.74906        37.61943         0.31854
O         34.70745        33.90563         2.58100
O         41.71974        43.57483        -1.77191
O         42.79239        45.97213        -2.66825
O         35.67458        40.27201        -1.93803
O         37.18334        27.09665        -2.27563
O         45.44776        36.76661        -1.23201
O         37.78186        41.48823        -1.62830
O         34.24035        44.66330         1.44328
O         50.63600        40.23103         2.97232
O         34.35010        41.79043         1.27478
O         38.48831        47.22860         0.85102
O         46.58872        33.33770         1.99895
O         41.95705        29.27309        -2.47253
O         36.45886        43.09441         1.53753
O         42.13180        47.53382         0.28291
O         42.04873        26.61084        -2.46513
O         38.18580        33.43431        -2.06323
O         34.73695        31.35716         2.97889
O         38.22104        27.52022        -3.18328
H         38.00586        28.47205        -3.35934
O         38.48169        44.03466        -1.69030
H         39.05118        43.42290        -2.20730
O         41.74663        30.97970         0.78073
H         41.10279        30.36272         1.20465
O         44.70718        26.61209        -2.87242
H         43.93131        26.36925        -3.42489
O         48.99064        33.15272         2.88173
H         48.15147        33.37912         3.33840
O         44.60868        45.36534         0.51670
H         45.37575        45.65630         1.06780
O         51.54273        37.85993         3.54988
H         52.20756        38.48341         3.90790
O         39.17032        39.95697         1.81770
H         39.73452        40.11307         2.60645
O         50.64802        31.62017        -1.01007
H         51.16361        32.38708        -1.33381
O         41.68146        38.17606        -1.11414
H         42.01192        39.08362        -1.34723
O         33.49582        37.38740        -1.49554
H         33.06618        38.06904        -2.06663
O         35.95121        37.72407        -2.24358
H         36.67351        37.93739        -2.87058
O         41.61203        25.17433         0.94687
H         41.70441        24.29743         1.37372
O         35.72224        38.01251         1.36443
H         35.05836        37.72652         2.03198
O         36.04282        30.75401        -1.73772
H         35.36325        31.45959        -1.88365
O         33.28702        34.87291        -0.64331
H         33.28716        35.62339        -1.29100
O         46.24506        29.23691         1.41978
H         47.09251        29.35700         1.90864
O         42.33609        36.94427         2.31854
H         41.47017        36.46183         2.36235
O         48.12998        28.77583        -1.72902
H         47.34335        28.42307        -2.19957
O         54.12629        29.47682         0.14802
H         53.97577        28.51409         0.06794
O         45.21999        40.39094         2.54022
H         45.82034        41.13711         2.77783
O         32.16136        33.90754         4.01668
H         31.63054        34.64706         4.37780
O         46.46543        39.49586        -0.84302
H         45.90765        38.75183        -1.17507
O         39.64294        37.44100         1.77856
H         38.81948        36.92364         1.89779
O         45.31027        44.98228        -3.16170
H         44.65808        44.23399        -3.18440
O         44.24380        42.88454        -2.11232
H         43.53310        42.15766        -2.15036
O         45.01296        36.46218         2.32065
H         44.05247        36.34194         2.54872
O         36.03541        34.76147        -2.81519
H         36.92638        34.44992        -3.12517
O         39.85517        40.01453        -1.70754
H         39.56085        39.41260        -2.42586
O         44.18496        33.05710         1.48034
H         44.75266        32.68080         2.18968
O         41.82653        42.94715         1.85504
H         40.99255        43.09404         2.35736
O         50.08604        42.64403         2.33955
H         50.47802        42.13482         3.08872
O         41.57279        50.82824        -2.38345
H         42.45196        51.18947        -2.61333
O         40.28742        28.77159         0.84712
H         40.70216        27.96190         1.21728
O         38.15980        31.73444         1.08108
H         38.09581        30.85867         1.52083
O         42.79934        31.68042        -2.64332
H         43.55402        32.23553        -2.93870
O         38.22152        44.91675         1.82437
H         37.85757        44.13941         2.30963
O         49.18689        41.51515        -0.97769
H         49.89317        41.93833        -1.51105
O         47.57173        37.14581         3.03336
H         46.66140        36.87175         3.28986
O         44.63412        33.91757        -1.99326
H         44.38646        34.74491        -2.45817
