         244
 CSIRO Nanostructure Databank - Neutral Graphene Oxide Data Set
C          1.34106         2.01390         0.41681
C          1.29037         3.35987         0.05319
C          2.53706         1.45487         0.87032
C          2.43679         4.16589         0.12810
C          1.20055         6.38410         0.31276
C          1.20885         7.73693         0.34586
C          2.34083         5.61356        -0.31121
C          2.37379         8.51711        -0.04183
C          1.14531        10.69717         0.02115
C          1.11293        12.05139         0.06460
C          2.38305         9.94058        -0.03531
C          2.33889        12.84451         0.24854
C          1.16603        15.06785         0.07271
C          1.19744        16.45915         0.09125
C          2.35408        14.31689         0.09506
C          2.42809        17.13670         0.16225
C          2.48518        18.59975         0.20454
C          3.69582         2.23761         0.93507
C          3.65293         3.58918         0.54116
C          4.98227         1.66413         1.48849
C          4.92522         4.39926         0.65893
C          3.63294         6.38174        -0.19366
C          3.58932         7.81728        -0.29440
C          4.86763         5.71884        -0.07366
C          4.78938         8.53738        -0.50084
C          3.61018        10.63952        -0.18262
C          3.66620        12.09665         0.05194
C          4.81663         9.94042        -0.42432
C          4.85754        12.87672        -0.32728
C          3.60904        14.98423         0.10762
C          3.62550        16.39501         0.17050
C          4.85907        14.24845        -0.11777
C          4.91025        17.15497         0.38788
C          3.63712        19.26650        -0.00036
C          4.89750        18.50359        -0.34025
C          6.20432         2.23189         0.79338
C          6.15924         3.59004         0.34753
C          7.35272         1.48835         0.69144
C          7.32736         4.22150        -0.15330
C          6.06561         6.36720        -0.40799
C          6.03138         7.79070        -0.91096
C          7.31252         5.66370        -0.43705
C          7.28093         8.50540        -0.37949
C          6.08141        10.66378        -0.59206
C          6.07363        12.15037        -0.87316
C          7.26422         9.99330        -0.64373
C          7.35916        12.82698        -0.45177
C          6.09390        15.01145        -0.19540
C          6.14318        16.36870         0.02668
C          7.38009        14.32544        -0.60149
C          7.39366        17.09959        -0.00645
C          6.17693        19.24708        -0.07604
C          7.38344        18.55307         0.01097
C          8.54969         1.99932        -0.04705
C          8.52308         3.49249        -0.24854
C          9.86729         1.51715         0.49731
C          9.75633         4.11009        -0.71608
C          8.49907         6.33925        -0.72155
C          8.55005         7.83900        -0.93051
C          9.74173         5.62759        -0.97817
C          9.81938         8.47852        -0.35663
C          8.54723        10.71617        -0.99425
C          8.55015        12.14352        -0.47049
C          9.83513         9.96179        -0.67338
C          9.81275        12.85347        -0.47586
C          8.57232        14.91639         0.14115
C          8.61400        16.41243        -0.02161
C          9.85406        14.22370        -0.26264
C          9.85105        17.09619        -0.03028
C          8.63214        19.23012         0.11969
C          9.85043        18.52862         0.09870
C         11.05226         2.18489         0.25889
C         11.06128         3.49997        -0.35973
C         12.32570         1.60894         0.62598
C         12.24329         4.18827        -0.55610
C         11.02582         6.35495        -0.93748
C         11.06358         7.72316        -0.79081
C         12.27628         5.55673        -1.22970
C         12.30763         8.42994        -0.83305
C         11.01102        10.62375        -0.74198
C         11.03210        12.11916        -0.99011
C         12.33042         9.93025        -0.99972
C         12.32062        12.77237        -0.51928
C         11.08393        14.95873        -0.31115
C         11.10063        16.38997        -0.14236
C         12.30497        14.21743        -0.37099
C         12.33242        17.11267        -0.11361
C         11.09358        19.19471         0.26425
C         12.33067        18.54232         0.17973
C         13.50516         2.23939         0.32920
C         13.50153         3.54023        -0.29243
C         14.83697         1.64889         0.71792
C         14.70638         4.17805        -0.63696
C         13.54553         6.31426        -0.90502
C         13.52451         7.73948        -0.81965
C         14.74773         5.60442        -0.81929
C         14.77798         8.46815        -0.65928
C         13.44865        10.53954        -0.15567
C         13.48574        12.04358        -0.30141
C         14.77463         9.85183        -0.41383
C         14.74127        12.68503        -0.01657
C         13.50205        14.90850        -0.13023
C         13.54433        16.33835        -0.16198
C         14.69934        14.13347         0.22910
C         14.82152        16.92321        -0.36657
C         13.48563        19.32639         0.56919
C         14.80274        19.09702         0.17739
C         15.88599         1.90503        -0.38473
C         15.94924         3.39116        -0.72571
C         17.22194         1.33022        -0.00006
C         17.25929         4.14607        -0.70937
C         16.01670         6.31725        -0.75035
C         16.01086         7.74842        -0.68597
C         17.23577         5.62324        -0.65515
C         17.24445         8.46532        -0.61455
C         15.99706        10.56936        -0.30712
C         15.97188        12.00927        -0.04340
C         17.21860         9.88851        -0.48180
C         17.22720        12.72040         0.12370
C         15.98846        14.86248         0.44357
C         16.02922        16.25256        -0.04546
C         17.25978        14.12182         0.35678
C         17.24350        16.91523        -0.03003
C         15.99435        19.60658         0.74241
C         17.29092        19.09132         0.45181
C         18.41243         2.04856         0.05355
C         18.46842         3.45241        -0.23939
C         19.63471         1.38699         0.44781
C         19.67261         4.17771        -0.10422
C         18.47851         6.32473        -0.58786
C         18.47445         7.73275        -0.64100
C         19.72204         5.59018        -0.38011
C         19.75718         8.44111        -0.82119
C         18.48433        10.65844        -0.48623
C         18.47941        12.05619         0.01171
C         19.78076         9.93419        -0.64522
C         19.68859        12.75423         0.16998
C         18.45475        14.84608         0.43014
C         18.38292        16.32576         0.76514
C         19.70270        14.17588         0.34436
C         19.68272        17.09050         0.65180
C         18.48413        19.29877         1.11379
C         19.68754        18.49758         0.87970
C         20.80650         2.07903         0.55835
C         20.86435         3.48632         0.28918
C         22.07606         4.19863         0.39590
C         20.96757         6.25152        -0.31846
C         21.05212         7.68203        -0.70208
C         22.12583         5.55023         0.08935
C         22.29690         8.46955        -0.47576
C         21.01863        10.54251        -0.04252
C         20.97101        12.01506         0.29195
C         22.28746         9.79298        -0.24604
C         22.19645        12.81836         0.36265
C         20.92439        14.91862         0.41703
C         20.90490        16.37274         0.52923
C         22.15300        14.18362         0.40211
C         22.11905        17.10573         0.54991
C         20.92821        19.16603         0.96798
C         22.12454        18.47878         0.77116
O         17.36051        18.13513        -0.62584
O         20.85417        10.94779         1.35824
O         14.92978        18.17942        -0.91283
O          3.15183        12.43014         1.39502
O         15.15891        14.55957         1.60144
O         19.22181        10.62760        -1.79564
O         16.68442         3.60880        -1.97564
O          8.53068        10.98897        -2.41360
O         20.47299         7.97564        -2.02231
O          9.68465         4.64498        -2.09075
O          4.98235         0.23744         1.43681
H          4.98239        -0.03569         0.49656
O         12.65661        10.16659        -2.39366
H         12.06795        10.89196        -2.73170
O         15.41594         1.20688        -1.56457
H         15.90571         1.58739        -2.32732
O         12.30999         5.30361        -2.66962
H         11.40541         4.99467        -2.91858
O          7.19556         8.31111         1.05258
H          8.08541         8.48721         1.44399
O         10.91751        12.26634        -2.44977
H         10.02228        11.83181        -2.66693
O         13.09606        10.27520         1.24121
H         13.77593        10.70009         1.80649
O          4.99369        17.45910         1.81044
H          4.98434        16.60999         2.29998
O          5.06636         4.76755         2.07962
H          4.47877         5.53498         2.24871
O          6.04127         7.77102        -2.37063
H          5.27313         7.24171        -2.67155
O          2.04914         5.56805        -1.75629
H          1.86064         6.48678        -2.04354
O         17.93499        16.42302         2.16153
H         18.59228        15.95033         2.71486
O          8.35496        14.64932         1.55949
H          9.08383        15.06878         2.06251
O          8.44662         1.43794        -1.42531
H          9.08225         1.93119        -1.98859
O          4.86591        18.21122        -1.77046
H          4.87996        19.06176        -2.25624
O          9.82754         8.36512         1.10364
H         10.61299         8.85324         1.43445
O          6.11833        12.27826        -2.34141
H          6.95982        11.76945        -2.59970
O          7.56287        14.57896        -2.01769
H          6.96981        13.94399        -2.49604
O          8.68002         8.04685        -2.34784
H          7.78478         8.00903        -2.75977
O         15.27440         2.27744         1.93016
H         16.14701         1.89889         2.16683
H          0.43475         1.39542         0.35439
H          0.34577         3.79366        -0.30372
H          2.58148         0.40083         1.17903
H          0.30746         5.83279         0.64282
H          0.33081         8.26834         0.74136
H          0.19740        10.14828        -0.07344
H          0.14846        12.57121        -0.02551
H          0.19352        14.55677         0.06289
H          0.25835        17.03049         0.07766
H          1.54548        19.14503         0.38298
H          5.04228         1.94591         2.57579
H          3.65784        20.36763        -0.00323
H          7.37528         0.46522         1.09654
H          6.18283        20.34900        -0.09122
H          9.89903         0.53049         0.98455
H          8.64304        20.32708         0.20097
H         12.33299         0.62750         1.12315
H         11.08001        20.27363         0.47970
H         14.73394         0.54030         0.88309
H         13.28412        20.19589         1.21311
H         17.25190         0.24745         0.19832
H         15.90396        20.31669         1.57614
H         19.60126         0.30834         0.65883
H         18.56162        20.13307         1.82634
H         21.73116         1.56262         0.85489
H         22.98913         3.66974         0.70419
H         23.08586         6.07891         0.15834
H         23.26228         7.95127        -0.57661
H         23.23891        10.32644        -0.10520
H         23.16627        12.30459         0.40542
H         23.10739        14.72405         0.45545
H         23.08009        16.59453         0.41213
H         20.94226        20.24725         1.16457
H         23.07988        19.02089         0.80539
