         621
 CSIRO Nanostructure Databank - Neutral Graphene Oxide Data Set
C          6.16011        31.87237        -1.23859
C          6.14074        33.22932        -1.14273
C          8.47829        27.48123        -0.84921
C          8.29477        28.78089        -1.27780
C          7.21157        29.69946        -1.13481
C          8.59407        31.81927        -0.75973
C          7.37298        31.09554        -1.10024
C          8.53748        33.22049        -0.51038
C          7.32398        33.96914        -0.78599
C          8.41542        36.14620        -0.37457
C          7.27239        35.35677        -0.72149
C          8.42048        37.52303        -0.42805
C         10.97024        23.27312        -0.77161
C         10.96343        24.66961        -0.56818
C          9.79711        25.44297        -0.81892
C         11.02338        27.53218        -0.42908
C          9.78302        26.83806        -0.75910
C         11.10008        28.95908        -0.29234
C         10.09479        29.83904        -0.82857
C         10.82207        31.79072         0.45706
C          9.81552        31.13208        -0.41099
C         10.83419        33.27572         0.46544
C          9.66606        33.93008         0.02234
C         10.85281        36.14102         0.47877
C          9.57520        35.39427         0.18044
C         10.95037        37.55504         0.00541
C          9.68278        38.29649        -0.36388
C         10.94132        40.42331        -0.04139
C          9.73391        39.75343        -0.20806
C         10.98771        41.86100         0.07037
C         13.22328        18.83323        -1.21290
C         12.86464        20.03692        -0.57241
C         12.02886        21.09459        -0.96347
C         13.22925        23.09810         0.14573
C         12.07888        22.45321        -0.47174
C         13.22506        24.50996         0.33221
C         12.13320        25.32298        -0.06489
C         13.31773        27.44083         0.50675
C         12.15614        26.77099         0.00907
C         13.39016        28.85773         0.59041
C         12.21387        29.58977         0.29861
C         13.35741        31.70982         1.08845
C         12.09232        30.99537         0.73407
C         13.25408        33.25233         1.21351
C         12.01860        33.98448         0.84221
C         13.31776        36.13853         0.80752
C         12.10484        35.39216         0.69203
C         13.36474        37.56167         0.63323
C         12.16681        38.32028         0.33239
C         13.49518        40.42810        -0.01696
C         12.18376        39.68776         0.13734
C         13.44173        41.87351         0.42041
C         12.15707        42.56948         0.34265
C         13.32246        44.71861         0.76371
C         12.16383        43.99490         0.45280
C         13.34107        46.12609         0.76564
C         15.69297        14.63653        -1.62296
C         15.74352        16.00644        -1.15786
C         14.57125        16.77871        -1.32303
C         15.69545        18.81669        -0.60935
C         14.47086        18.14304        -0.97261
C         15.69241        20.29927        -0.43418
C         14.57220        20.99948         0.17522
C         15.74633        23.08677         0.42784
C         14.49343        22.39733         0.26311
C         15.71180        24.41714         1.04745
C         14.36937        25.15755         1.01503
C         15.74468        27.35250         1.38057
C         14.39465        26.64693         1.12757
C         15.84999        28.74925         0.89928
C         14.65452        29.58243         0.78151
C         15.83352        31.88309         0.77059
C         14.64086        30.99102         0.82383
C         15.76127        33.31859         1.13863
C         14.48614        34.03526         1.23290
C         15.82173        36.08713         1.09549
C         14.53648        35.41383         1.08388
C         15.84790        37.49752         0.72124
C         14.59532        38.26054         0.68038
C         15.86845        40.36319         0.83840
C         14.67693        39.67453         0.55961
C         15.89298        41.84422         0.75547
C         14.59061        42.54947         0.70246
C         15.83608        44.70803         1.17370
C         14.53009        43.95585         1.26533
C         15.86182        46.15689         0.79555
C         14.53554        46.87748         0.89176
C         15.76359        49.04161         0.88131
C         14.54644        48.26591         0.88270
C         15.72892        50.40370         0.64217
C         18.24138        10.35542        -1.65490
C         18.20035        11.75868        -1.48606
C         16.94432        12.39055        -1.74204
C         18.35865        14.61725        -0.55463
C         16.57961        13.64698        -1.20797
C         18.24677        16.01731        -0.68085
C         16.95603        16.68284        -0.74881
C         18.21172        18.84438        -0.62850
C         16.91376        18.11057        -0.63401
C         18.26544        20.35264        -0.49993
C         16.98529        21.11685        -0.42532
C         18.20423        23.08461         0.54908
C         16.96478        22.43853         0.22495
C         18.18826        24.42257         1.00330
C         16.98293        25.15245         1.19481
C         18.24806        27.24428         1.53194
C         17.00090        26.54712         1.40906
C         18.32129        28.60451         1.22553
C         17.14995        29.18497         0.67417
C         18.25433        31.80592         1.54303
C         17.21217        31.35475         0.80659
C         18.21699        33.23166         1.99924
C         16.96217        33.99963         1.70537
C         18.27299        36.12312         1.53890
C         17.01394        35.44614         1.42858
C         18.33443        37.51907         1.39545
C         17.16427        38.25187         0.90720
C         18.26103        40.35338         1.55395
C         17.09428        39.69480         1.13358
C         18.13177        41.77105         2.04533
C         17.10485        42.57055         1.25094
C         18.26226        44.74860         1.64065
C         17.04518        44.05622         1.43170
C         18.29369        46.22435         1.73000
C         16.99308        46.93274         1.44684
C         18.25043        49.01743         1.07075
C         17.03335        48.36771         1.11881
C         18.26173        50.47914         0.82827
C         16.94848        51.20953         0.62152
C         18.11660        53.16083        -0.42998
C         16.95040        52.54016        -0.01359
C         18.14866        54.52192        -0.83090
C         20.65156         6.09157        -1.20179
C         20.68097         7.46619        -1.49953
C         19.46196         8.21432        -1.59654
C         20.68903        10.37009        -1.85172
C         19.43725         9.60586        -1.65600
C         20.70377        11.80320        -1.45869
C         19.45938        12.46641        -1.20507
C         20.76105        14.57381        -0.90292
C         19.52234        13.86020        -0.89143
C         20.73730        15.98712        -0.66094
C         19.49304        16.71893        -0.62817
C         20.66073        18.83036        -0.13729
C         19.48299        18.12139        -0.41982
C         20.63814        20.20126         0.24454
C         19.46543        20.96852         0.10080
C         20.69183        23.01386         0.63366
C         19.44513        22.34756         0.45198
C         20.66582        24.50692         0.56822
C         19.48049        25.06554         1.31374
C         20.81159        27.27921         1.51392
C         19.51786        26.51817         1.68448
C         20.85100        28.77842         1.59185
C         19.49402        29.46025         1.65316
C         20.70135        31.80985         2.19620
C         19.45463        30.95984         1.85216
C         20.67065        33.23090         1.64877
C         19.49423        33.97209         1.85810
C         20.74909        36.07441         1.68457
C         19.50019        35.38471         1.73512
C         20.78866        37.52628         1.66269
C         19.53839        38.24330         1.59577
C         20.74368        40.40628         1.71772
C         19.49984        39.66152         1.66099
C         20.73229        41.78008         1.91506
C         19.46996        42.52253         2.19221
C         20.78411        44.80004         2.08462
C         19.47209        44.03715         2.07388
C         20.83898        46.26079         1.76588
C         19.57431        46.97529         1.59524
C         20.77224        49.12913         1.18196
C         19.51591        48.33218         1.26974
C         20.78433        50.44109         0.45895
C         19.46226        51.01550         0.11602
C         20.62998        53.05574        -0.87562
C         19.37300        52.36536        -0.52717
C         20.55562        54.35218        -1.36579
C         19.33460        55.13703        -1.29862
C         20.55830        57.13511        -2.15351
C         19.37252        56.49441        -1.67172
C         20.59436        58.55387        -2.36244
C         22.99167         3.32013        -0.28129
C         21.81414         3.99133        -0.58006
C         23.09495         6.05298        -0.96954
C         21.83711         5.37404        -0.92264
C         23.13434         7.42196        -1.34729
C         21.95059         8.12569        -1.60989
C         23.24170        10.31069        -1.66616
C         22.00444         9.57272        -1.89146
C         23.21008        11.76973        -1.68184
C         21.93745        12.48340        -1.39948
C         23.23755        14.57921        -0.93558
C         21.99216        13.87973        -1.10330
C         23.17735        15.95297        -0.60153
C         21.96232        16.66835        -0.52291
C         23.04457        18.57021         0.67012
C         22.00188        18.18264        -0.38696
C         23.13486        20.07474         0.96249
C         21.83840        20.85866         0.81719
C         23.14419        23.02069         0.90360
C         21.90094        22.32945         0.75216
C         23.19541        24.42042         0.82510
C         21.97707        25.18637         0.84846
C         23.12577        27.32951         0.44311
C         21.97627        26.56270         0.96092
C         23.12797        28.87919         0.39145
C         22.02997        29.54275         1.09871
C         23.19177        31.69789         0.70684
C         22.30787        30.87418         1.65137
C         22.95386        33.20100         0.63957
C         21.86151        33.91703         1.34745
C         23.24248        36.01141         1.44119
C         21.93110        35.32012         1.49475
C         23.27187        37.52073         1.45255
C         21.98494        38.23927         1.52303
C         23.17961        40.35702         1.18596
C         21.99196        39.68406         1.45048
C         23.18426        41.81789         1.10079
C         21.92900        42.55169         1.52751
C         23.36750        44.65765         1.72197
C         22.04688        43.98049         1.94322
C         23.37200        46.16203         1.77216
C         22.06894        46.89274         1.60616
C         23.30480        49.03369         0.72695
C         22.08485        48.35685         1.30505
C         23.25358        50.48510         0.29169
C         21.92874        51.11525         0.08682
C         23.07691        53.02534        -1.03776
C         21.89210        52.38198        -0.66835
C         23.07160        54.21762        -1.88494
C         21.71166        54.94613        -2.03334
C         22.93397        56.92893        -2.95976
C         21.72025        56.36466        -2.36120
C         22.94449        58.45832        -3.17907
C         21.75876        59.22251        -2.74289
C         23.09308        61.27193        -2.95797
C         21.87418        60.63781        -2.70329
C         24.22684         3.98412        -0.30435
C         25.55364         6.04186        -0.63438
C         24.30607         5.34887        -0.64831
C         25.66000         7.38817        -1.00014
C         24.45463         8.06903        -1.52629
C         25.76339        10.30103        -1.32593
C         24.51032         9.59772        -1.67869
C         25.78066        11.67015        -1.24997
C         24.55570        12.48983        -1.48101
C         25.70908        14.50721        -0.61669
C         24.52441        13.89170        -0.98315
C         25.77231        15.96518        -0.45595
C         24.42967        16.70331        -0.40912
C         25.52625        18.60487         0.65750
C         24.36859        17.99924         0.26356
C         25.63235        20.08694         0.62597
C         24.38742        20.81235         0.86097
C         25.62654        23.01282         0.77567
C         24.40669        22.26071         1.29396
C         25.65825        24.49383         0.93035
C         24.44698        25.15196         0.86166
C         25.69428        27.31940         0.30806
C         24.41394        26.56910         0.40618
C         25.69517        28.81004         0.08005
C         24.43709        29.59752         0.26113
C         25.74758        31.67818         0.23762
C         24.48499        30.98440         0.32695
C         25.85809        33.03907        -0.03681
C         23.99601        34.12301         0.16029
C         25.56240        36.04743         0.15012
C         24.31275        35.33405         0.67362
C         25.62644        37.50088         0.60417
C         24.48750        38.19022         0.93465
C         25.68085        40.39659         0.57355
C         24.36571        39.64809         0.57270
C         25.67828        41.80235         0.60121
C         24.47859        42.54667         0.96944
C         25.56767        44.70787         0.37278
C         24.49145        43.92086         1.09294
C         25.70722        46.15132         0.81655
C         24.71477        46.78335         1.53550
C         25.69911        48.95850        -0.11032
C         24.33149        48.32694        -0.13090
C         25.66755        50.36924        -0.41082
C         24.45264        51.04645        -0.38867
C         25.66775        53.15276        -1.16062
C         24.39780        52.48122        -0.65924
C         25.56738        54.39431        -1.93745
C         24.31404        54.99369        -2.15234
C         25.44487        56.96448        -3.08458
C         24.23650        56.26522        -2.75982
C         25.41690        58.37102        -3.36810
C         24.25463        59.13395        -3.25462
C         24.26659        60.55219        -3.20083
C         26.87226         8.10317        -0.90981
C         28.18691        10.16091        -0.80288
C         26.96690         9.51133        -1.05250
C         28.28656        11.58133        -0.69819
C         27.06378        12.36920        -1.00114
C         28.19302        14.37536         0.18261
C         27.02790        13.81289        -0.60813
C         28.19318        15.83148         0.53233
C         26.91763        16.57142         0.25817
C         28.51850        18.92675         1.04663
C         26.68196        17.77865         0.84023
C         28.30548        20.19925         0.59584
C         26.94842        20.80869         0.42415
C         28.16955        23.13388         0.11080
C         26.88358        22.32498         0.35358
C         28.13155        24.53549         0.70391
C         26.93519        25.18458         0.87697
C         28.16983        27.44306         1.06867
C         26.90010        26.67864         0.93013
C         28.25570        28.83937         0.60339
C         27.03184        29.50441         0.10971
C         28.23800        31.68713         0.66517
C         27.08364        31.00934        -0.01458
C         28.11432        33.15425         1.02624
C         26.93872        33.86742         0.38029
C         28.09167        36.02166         0.45602
C         26.86316        35.26722         0.39578
C         28.07950        37.42395         0.23976
C         26.87183        38.21689         0.32986
C         28.04797        40.41586        -0.24671
C         26.87517        39.63426         0.32893
C         28.17041        41.84713         0.25022
C         26.90921        42.56929         0.41243
C         28.10690        44.72490         0.15025
C         26.88329        43.95226         0.40724
C         28.10480        46.18410         0.31703
C         26.92327        46.87604         0.45379
C         28.15074        48.96186        -0.25348
C         26.89931        48.29255         0.09666
C         28.12439        50.29340        -0.76716
C         26.90375        51.02824        -0.80074
C         28.07651        52.96298        -1.80457
C         26.89163        52.35294        -1.26284
C         28.00152        54.28082        -2.32970
C         26.76890        54.99008        -2.43354
C         26.68154        56.28954        -2.98763
C         29.46269        12.23344        -0.39918
C         30.61283        14.54579        -0.51182
C         29.55623        13.65440         0.11337
C         30.69301        15.90794        -0.21185
C         29.54486        16.56961         0.52623
C         30.71572        18.83050        -0.06003
C         29.66676        18.07725         0.69573
C         30.73074        20.30148         0.12254
C         29.49574        20.97515         0.26759
C         30.67920        23.08819         0.39321
C         29.46615        22.38381         0.33813
C         30.66493        24.47132         1.01148
C         29.43474        25.31362         0.58734
C         30.71420        27.42434         0.98496
C         29.45116        26.66525         1.35313
C         30.69359        28.82611         0.90305
C         29.43892        29.54233         0.74894
C         30.67434        31.73949         0.96647
C         29.42861        31.00974         0.77074
C         30.65584        33.15622         0.93246
C         29.40206        33.90325         0.81827
C         30.63310        35.95931         0.38682
C         29.34033        35.26388         0.57804
C         30.66119        37.41066         0.06590
C         29.34733        38.12610        -0.10714
C         30.67428        40.33373        -0.13372
C         29.35803        39.61386        -0.28611
C         30.66890        41.80894         0.10065
C         29.37031        42.51084         0.25070
C         30.68201        44.72064         0.33520
C         29.43357        43.98442         0.15057
C         30.69772        46.16536         0.48493
C         29.38348        46.91746         0.35495
C         30.62286        48.89771        -0.56944
C         29.38328        48.29962        -0.12256
C         30.55891        50.20340        -1.13756
C         29.34144        50.91672        -1.22476
C         29.28566        52.22908        -1.76335
C         31.89229        16.63170        -0.44572
C         33.18421        18.92207        -0.50974
C         31.95761        18.10472        -0.48918
C         33.17316        20.29563        -0.28172
C         31.92850        21.01510        -0.02773
C         33.14996        23.16224         0.28028
C         31.91082        22.42014         0.20317
C         33.14715        24.53277         0.56366
C         31.93773        25.26657         0.78367
C         33.14383        27.43946         0.38490
C         31.92052        26.67021         0.83593
C         33.15391        28.89667         0.81319
C         31.93036        29.58786         0.89598
C         33.15539        31.73282         1.07981
C         31.91423        31.02203         1.00421
C         33.12974        33.17672         1.09895
C         31.89786        33.85197         1.00857
C         33.13994        36.10086         0.89422
C         31.84979        35.32623         0.98122
C         33.16320        37.49244         0.40023
C         31.90736        38.19435         0.28757
C         33.17045        40.28149         0.38470
C         31.88897        39.56658         0.22371
C         33.21243        41.77340         0.49375
C         31.90728        42.51289         0.58392
C         33.20473        44.68696         0.11669
C         31.94537        44.00192         0.51358
C         33.16116        46.03732        -0.13249
C         32.01816        46.92718         0.31260
C         31.83365        48.18763        -0.50734
C         34.37917        21.08236        -0.26428
C         35.62303        23.19231        -0.00287
C         34.38819        22.44573         0.01735
C         35.67276        24.53677         0.30063
C         34.45054        25.22236         0.86510
C         35.62534        27.38184         0.65101
C         34.43996        26.71050         0.62743
C         35.65034        28.83141         0.97093
C         34.37541        29.59984         0.94257
C         35.67132        31.72726         1.25370
C         34.38265        30.99778         1.09255
C         35.65680        33.21478         1.11248
C         34.36391        33.94224         1.02612
C         35.62453        35.99848         0.49944
C         34.37364        35.31444         0.89831
C         35.63872        37.39272        -0.08402
C         34.37046        38.15299         0.09075
C         35.58760        40.29869        -0.24337
C         34.39451        39.56181         0.00713
C         35.57401        41.70852        -0.27382
C         34.41696        42.49166         0.01118
C         34.36812        43.87705        -0.16180
C         36.88086        25.29960         0.24377
C         38.09730        27.43427         0.29051
C         36.89496        26.67126         0.48522
C         38.14596        28.81160         0.40911
C         36.97763        29.53455         0.97408
C         38.18359        31.75621         0.43811
C         37.00069        31.03348         1.01916
C         37.96820        33.17357        -0.07789
C         36.92216        33.91787         0.74233
C         38.47607        36.28748        -0.46425
C         36.87621        35.27207         0.78795
C         38.02886        37.45383        -1.01594
C         36.87321        38.18065        -0.45079
C         36.79121        39.54539        -0.54968
C         39.25265        29.56543        -0.10900
C         40.31706        31.65878        -0.84675
C         39.26192        30.94342        -0.18648
C         40.30034        33.01759        -1.01201
C         39.23817        33.89283        -0.56575
C         39.34699        35.22493        -0.93309
O         19.18650        30.03591         2.95993
O         23.94778        47.56236        -1.00808
O         27.38420        13.43711        -1.97892
O         30.84682        36.39987        -0.99824
O         14.81492        24.47508         2.21275
O         25.15750        26.64916        -0.86538
O         22.44311        32.27109        -0.39649
O         30.90895        41.27558        -1.25208
O         27.92262        14.79565         1.55666
O         31.84490        43.26256         1.82573
O         25.19466        53.32453         0.24396
O         17.36425        46.66053         2.81811
O         35.51862        36.23051        -0.99218
O         21.18083        27.96904         2.77219
O         23.73441        50.08193         1.63574
O         22.71512        57.53066        -4.27718
O         20.88764        31.93000         3.48543
O         16.72104        37.80664        -0.42057
O         17.28478        13.94225        -0.00518
O         29.99338        46.66333         1.70527
O         21.54018        44.33542         3.24509
O         23.98447        12.35357        -2.80849
O         38.06895        31.56369         1.87150
O         19.62957        25.47006         2.69742
O         38.02942        36.03785         0.84832
O         10.61332        37.74832        -1.40893
O         21.31888        10.05478        -3.11915
O         27.20949        27.31323         2.22096
O         17.40450        30.30940        -0.09868
O         27.55604        18.27853         1.81039
O         23.65930        45.37204         2.99006
O         24.64615         8.67297        -2.83286
O         15.83789        32.92047        -0.30886
O         16.97204        42.28225        -0.17532
O         22.22158        42.36560         0.09822
O          9.88122        35.89104         1.54211
O         17.72399        51.26318         1.92071
O         25.28553        16.71274        -1.60835
O         19.36511        43.34227         3.39551
O         22.78322        28.04586        -0.77535
O         13.53297        20.24515         0.67781
O         25.87325        22.72010        -0.64140
O         13.24042        32.34913         2.39004
O         24.84069        33.59670        -0.81816
O         11.03974        31.15073         1.75351
O         30.05825        17.15197         1.76456
O         22.26132        54.08454        -3.09070
O         35.73548        32.56707         2.44935
O         23.59599        36.71755         2.66370
O         33.38604        40.96541         1.70401
O         18.42687        19.73311        -1.80773
O         28.76655        44.39962        -1.13236
O         32.36312        35.99314         2.17070
O         36.43198        28.99050         2.21976
O         26.28482        20.29003        -0.77605
O         16.17653        21.04388        -1.62453
O          9.40679        29.35144        -1.94019
O         30.85861        18.50583        -1.47445
O         14.78169        27.13060         2.44846
O         19.21187        51.12401        -1.33018
O         17.31296        33.60327         3.07950
O         22.29781        20.38886         2.16613
O         26.47332        28.99064        -1.16418
O         21.54538        49.12894         2.42359
O         29.33504        38.73769        -1.45788
O         17.55967        41.61689         3.37095
H         17.92351        42.35023         3.92599
O         33.04075        27.48753        -1.08916
H         32.10593        27.68080        -1.31768
O         30.58947        24.14282         2.42181
H         30.46716        24.98629         2.92551
O         24.45789        22.27548         2.75266
H         23.67817        21.75916         3.06525
O         22.69259        17.88296         1.89426
H         22.32537        18.56548         2.50734
O         20.37956        24.85465        -0.83220
H         21.10174        24.49794        -1.39236
O         29.52194        26.46662         2.78297
H         28.60965        26.61105         3.13865
O         28.21780        23.39314        -1.33539
H         27.27819        23.38983        -1.64814
O         16.22371        46.18679        -0.63415
H         15.56694        45.64874        -1.12572
O         25.03402        47.84201         2.32692
H         24.26838        48.13702         2.86155
O         32.42912        47.44125         1.61730
H         31.60867        47.48585         2.16748
O         25.42784        36.18930        -1.29611
H         25.33334        35.28019        -1.66699
O         29.59148        25.66941        -0.80685
H         29.24819        24.90878        -1.34439
O         27.36869        31.30659        -1.42495
H         26.94249        30.58747        -1.95221
O         37.23941        32.94980        -1.33906
H         37.04438        33.82332        -1.74367
O         23.99045        39.58817        -0.85870
H         24.72857        39.15514        -1.34173
O         22.89834        30.69477         2.92579
H         22.33607        31.17550         3.60902
O         34.58542        25.09528         2.33174
H         35.41975        25.54353         2.59018
O         27.83241        33.17613         2.47114
H         28.63396        32.85944         2.93987
O         25.15920        44.72721        -1.02935
H         25.18104        43.80961        -1.37534
O         30.05220        13.47634         1.47523
H         29.52276        14.07949         2.05471
O         13.72758        40.47393        -1.46452
H         13.79253        39.55042        -1.78862
O         14.30671        43.77399         2.71136
H         13.40613        43.40374         2.82864
O         27.64179        40.62066        -1.63510
H         28.06331        39.90083        -2.16348
O         22.48561        18.73454        -1.63944
H         21.86126        18.48849        -2.35375
H          5.23315        31.33015        -1.47676
H          5.20679        33.78480        -1.31070
H          7.61054        26.89612        -0.50889
H          6.18679        29.30326        -1.05630
H          6.33824        35.86980        -0.99604
H          7.50175        38.05487        -0.72052
H         10.07404        22.80815        -1.20907
H          8.86768        24.91363        -1.07703
H          8.79075        40.32032        -0.20777
H         10.04283        42.41669        -0.03024
H         12.54830        18.40810        -1.97126
H         11.30755        20.90085        -1.77234
H         11.24035        44.54398         0.21148
H         12.39547        46.66722         0.60045
H         14.93453        14.39127        -2.38109
H         13.66781        16.27131        -1.69327
H         13.59019        48.81028         0.85107
H         14.77802        50.88436         0.36698
H         17.28866         9.81593        -1.76543
H         16.22131        11.83903        -2.36200
H         15.99801        53.09029        -0.05886
H         17.22526        55.11633        -0.76814
H         19.68237         5.57529        -1.14009
H         18.51065         7.67143        -1.49546
H         18.45587        57.09495        -1.57735
H         19.70215        59.14218        -2.10116
H         22.95845         2.25405        -0.01621
H         20.85126         3.46173        -0.55229
H         23.14107        62.36912        -2.91506
H         20.99016        61.23734        -2.44294
H         25.14724         3.43752        -0.05420
H         26.45691         5.50041        -0.31531
H         26.37913        58.88623        -3.51030
H         25.22175        61.08392        -3.31691
H         27.77633         7.55556        -0.60386
H         29.07986         9.55333        -0.59485
H         28.91835        54.75497        -2.70958
H         27.60106        56.80565        -3.30100
H         30.36868        11.62670        -0.24631
H         31.48405        14.06252        -0.98054
H         31.48531        50.67487        -1.49767
H         30.20926        52.69192        -2.14114
H         32.76872        16.06636        -0.79986
H         34.14988        18.40808        -0.63288
H         34.06859        46.54255        -0.49858
H         32.74973        48.70139        -0.83918
H         35.33492        20.57750        -0.47342
H         36.54594        22.66553        -0.29244
H         36.50168        42.23386        -0.54787
H         35.26863        44.39469        -0.52660
H         37.81533        24.79259        -0.04220
H         38.98948        26.89989        -0.07160
H         38.44454        37.81732        -1.96823
H         37.67372        40.11043        -0.88622
H         40.08764        29.00372        -0.55651
H         41.16738        31.08049        -1.23805
H         41.15637        33.49453        -1.51410
H         40.20417        35.50352        -1.56996
