         344
 CSIRO Nanostructure Databank - Neutral Graphene Oxide Data Set
C          1.29104         1.98479        -0.03106
C          1.27021         3.38469         0.14020
C          2.48304         1.30768        -0.19609
C          2.44861         4.13513         0.10770
C          1.25737         6.30364         0.72983
C          1.20763         7.65350         0.88168
C          2.46743         5.58736         0.36427
C          2.41854         8.48453         0.82922
C          1.18193        10.68440         0.84157
C          1.15384        12.07979         0.78741
C          2.36455         9.96450         0.62436
C          2.32600        12.81212         0.52127
C          1.14342        15.02902         0.23385
C          1.16633        16.40476         0.14084
C          2.33900        14.29143         0.45946
C          2.38485        17.12682         0.27043
C          2.42824        18.54455         0.16819
C          3.71480         2.02424        -0.22299
C          3.68687         3.45222        -0.11656
C          4.95222         1.35904        -0.37370
C          4.92236         4.17272        -0.16519
C          3.63292         6.29955         0.18501
C          3.69103         7.74441         0.46398
C          4.85387         5.65723        -0.43287
C          4.77941         8.51279        -0.25644
C          3.55968        10.68382         0.32214
C          3.52326        12.10025         0.29575
C          4.81356         9.97805         0.11027
C          4.73594        12.92526        -0.08231
C          3.54802        14.98444         0.59979
C          3.59601        16.40611         0.50847
C          4.79902        14.17220         0.85433
C          4.81671        17.13748         0.64290
C          3.62058        19.22568         0.30730
C          4.83219        18.52644         0.54801
C          6.17169         2.06865        -0.32956
C          6.13491         3.50221        -0.19002
C          7.41872         1.41330        -0.49063
C          7.41322         4.21890         0.16781
C          6.13654         6.40282        -0.14120
C          6.10576         7.80135        -0.12413
C          7.36710         5.70823        -0.04784
C          7.31082         8.54250         0.01116
C          6.02299        10.65901         0.06163
C          6.03941        12.13180        -0.06745
C          7.28494         9.97118         0.07830
C          7.31507        12.84689         0.26198
C          6.08477        14.95165         0.69060
C          6.12895        16.44402         0.92235
C          7.26932        14.30121         0.54327
C          7.23883        17.08740         0.06474
C          6.11290        19.29320         0.81863
C          7.36304        18.56253         0.36477
C          8.65749         2.12399        -0.53119
C          8.66939         3.55955        -0.34702
C          9.86323         1.45529        -0.72353
C          9.86561         4.29177        -0.44591
C          8.57787         6.41751        -0.01115
C          8.55411         7.84525         0.04990
C          9.84334         5.71650        -0.19525
C          9.76802         8.58251         0.17402
C          8.50919        10.68569         0.30990
C          8.50599        12.06203         0.58659
C          9.75855         9.96441         0.33828
C          9.74279        12.76274         0.94182
C          8.53762        15.02211         0.50387
C          8.56278        16.37139         0.23143
C          9.77412        14.28269         0.81538
C          9.80888        17.05979        -0.03166
C          8.56245        19.18551         0.26538
C          9.81415        18.50918        -0.08863
C         11.18267         2.14146        -0.53832
C         11.12608         3.64640        -0.71030
C         12.30259         1.51564        -1.37440
C         12.30954         4.38040        -0.94734
C         11.03024         6.43352        -0.27390
C         11.06592         7.82938         0.30532
C         12.21670         5.83089        -0.81246
C         12.22243         8.67521        -0.13718
C         11.00757        10.70730         0.49016
C         11.01528        12.05219         0.77439
C         12.24576        10.02826         0.16738
C         12.29264        12.80699         1.07565
C         11.06078        14.91930         0.46928
C         10.99050        16.27697        -0.05037
C         12.25959        14.25174         0.57816
C         12.18743        16.76886        -0.62226
C         10.95626        19.31537        -0.22833
C         12.19724        18.85150        -0.75855
C         13.60181         2.22619        -1.07461
C         13.59011         3.66025        -1.06609
C         14.76455         1.49272        -0.89005
C         14.88076         4.28347        -1.00551
C         13.20475         6.73559        -1.26369
C         13.29027         8.09751        -0.87419
C         15.10074         5.64024        -1.37049
C         14.43582         8.92265        -1.11019
C         13.47941        10.78708         0.10126
C         13.51821        12.09243         0.55381
C         14.65701        10.12584        -0.44277
C         14.82712        12.80074         0.73035
C         13.56776        15.03927         0.51804
C         13.46183        16.28092        -0.34469
C         14.80132        14.22531         0.17338
C         14.61304        17.01569        -0.71338
C         13.51397        19.28187        -0.56747
C         14.65460        18.44649        -0.81315
C         16.02515         2.11392        -0.61454
C         16.06141         3.54277        -0.66177
C         17.21526         1.39633        -0.36805
C         17.29025         4.21816        -0.40254
C         16.23010         6.36500        -0.97286
C         16.32888         7.77806        -1.14055
C         17.33503         5.64978        -0.38702
C         17.28581         8.55527        -0.49357
C         15.98007        10.74397        -0.28939
C         16.02867        12.03829         0.22418
C         17.22316         9.97072        -0.35765
C         17.29359        12.83090         0.30015
C         15.89048        14.82370        -0.36883
C         15.86214        16.23425        -0.84791
C         17.18303        14.06818        -0.62691
C         17.17065        16.96035        -1.02423
C         15.94530        19.09643        -0.84283
C         17.16141        18.43723        -0.90485
C         18.45653         2.05583        -0.15661
C         18.48147         3.49656        -0.13966
C         19.67739         1.36108         0.01731
C         19.70267         4.20271         0.07003
C         18.48414         6.34385        -0.00530
C         18.42347         7.83936         0.22204
C         19.71144         5.63691         0.16341
C         19.75635         8.45032        -0.23272
C         18.49161        10.64485        -0.11426
C         18.52354        12.04890        -0.03645
C         19.72855         9.94584        -0.11195
C         19.73724        12.75539        -0.10410
C         18.44321        14.90911        -0.46912
C         18.43350        16.24560        -0.72847
C         19.71703        14.20699        -0.25268
C         19.72158        16.99672        -1.00543
C         18.41722        19.13268        -0.78645
C         19.64604        18.49203        -0.78575
C         20.90896         2.04587         0.16140
C         20.92610         3.48839         0.18655
C         22.14161         1.35746         0.27722
C         22.15651         4.19445         0.28933
C         20.94805         6.32639         0.30918
C         20.94202         7.82202         0.50227
C         22.16782         5.63039         0.31475
C         22.23476         8.50372         0.12967
C         20.95364        10.62980        -0.04706
C         20.95284        12.04240        -0.04257
C         22.22362         9.90045        -0.03039
C         22.22916        12.75946        -0.00729
C         20.89299        14.90582        -0.29932
C         20.88311        16.40593        -0.21625
C         22.20282        14.24002        -0.18078
C         22.18451        17.05854        -0.61844
C         20.89960        19.17940        -0.70169
C         22.13211        18.51852        -0.70257
C         23.36376         2.04916         0.37729
C         23.38682         3.48312         0.36637
C         24.60689         1.35727         0.49842
C         24.62773         4.18601         0.42911
C         23.42882         6.33943         0.30971
C         23.44399         7.77091         0.16551
C         24.64753         5.62438         0.36552
C         24.69046         8.46612         0.05249
C         23.45554        10.60625        -0.17391
C         23.47997        12.02732        -0.26564
C         24.68894         9.88309        -0.14100
C         24.67828        12.75270        -0.39978
C         23.35775        14.86686        -0.93289
C         23.34853        16.36939        -0.78407
C         24.68070        14.18320        -0.62478
C         24.55965        17.08649        -1.32456
C         23.38658        19.21119        -0.71663
C         24.59048        18.53961        -0.88360
C         25.80731         2.03546         0.58966
C         25.84648         3.46614         0.53585
C         27.06968         1.23015         0.78526
C         27.10303         4.17458         0.58232
C         25.90744         6.32119         0.34987
C         25.91676         7.75586         0.19587
C         27.12284         5.60592         0.46038
C         27.13967         8.48416         0.21890
C         25.91681        10.59684        -0.20025
C         25.93047        12.04487        -0.34962
C         27.11769         9.88316         0.01093
C         27.12440        12.77285        -0.37445
C         25.87088        14.87710        -0.74749
C         25.88382        16.32375        -1.10982
C         27.13428        14.20172        -0.49876
C         27.15545        17.09296        -0.88737
C         25.83309        19.20699        -0.68687
C         27.05525        18.55053        -0.60293
C         28.33567         2.02746         0.60284
C         28.31392         3.44628         0.65433
C         29.53181         1.35149         0.36884
C         29.62258         4.15984         0.86754
C         28.40211         6.31154         0.41745
C         28.40792         7.78037         0.32864
C         29.59042         5.62890         0.53751
C         29.60637         8.46880         0.31507
C         28.34626        10.67029         0.20518
C         28.43578        12.03428        -0.43881
C         29.63998         9.93245         0.41337
C         29.62389        12.81618         0.05837
C         28.33984        14.90234        -0.30960
C         28.47550        16.38974        -0.56864
C         29.55193        14.22370         0.08819
C         29.25661        17.06217         0.56153
C         28.21289        19.23376        -0.12349
C         29.32366        18.56569         0.36881
C         30.72883         2.06151         0.09547
C         30.79395         3.43033         0.25200
C         31.97512         4.17723        -0.09062
C         30.92962         6.34311         0.64387
C         30.89688         7.74310         0.01182
C         32.04811         5.52237         0.04191
C         32.11733         8.56519         0.33496
C         30.90192        10.68958         0.28852
C         30.84605        12.11936         0.31565
C         32.10901         9.93131         0.36899
C         32.00210        12.90837         0.60453
C         30.70414        14.98435         0.50908
C         30.61450        16.40174         0.72013
C         31.92004        14.27751         0.72443
C         31.68551        17.17766         1.14923
C         30.46177        19.26945         0.84991
C         31.59229        18.58713         1.26115
O         14.14956         6.25870        -2.18792
O         15.42282         8.42186        -1.98373
O          3.44369         8.12446         1.84249
O         28.85465        10.51659         1.55273
O         22.44283        13.70298         1.15158
O         12.06214        17.73923        -1.62684
O         16.46531        16.39971        -2.20090
O          9.71972        13.63819         2.14961
O          6.91383        12.56439        -1.16803
O         26.76825        16.66961        -2.25075
O          6.47667        16.66465         2.32309
H          5.97669        16.01145         2.85867
O         15.00038        12.95963         2.20217
H         14.15940        12.66233         2.63708
O         28.68153        11.74959        -1.86496
H         28.68869        12.60847        -2.33885
O         17.15217        13.61223        -1.99739
H         16.99905        14.41302        -2.55297
O         29.30900        16.53109        -1.74879
H         28.72143        16.38876        -2.52509
O          7.50305         4.06252         1.64677
H          7.38590         3.10733         1.84001
O         11.27039         7.62075         1.75195
H         10.49483         7.12141         2.08674
O          4.51047        13.40025        -1.42451
H          5.39381        13.44579        -1.86163
O         20.00852        16.78327        -2.41235
H         19.24025        17.10225        -2.93093
O         19.94426         8.12140        -1.63271
H         19.28200         8.61721        -2.15837
O          4.69348         5.75016        -1.89232
H          3.81364         5.37987        -2.11682
O         17.53325        13.35503         1.63228
H         16.72623        13.21228         2.18406
O          4.78814        13.72195         2.24022
H          3.92753        13.27875         2.40458
O          6.21972        19.48947         2.24443
H          6.34120        18.59167         2.63850
O         12.37314        12.87300         2.55464
H         11.50103        13.24057         2.84984
O         28.50248        16.82664         1.78461
H         29.01081        17.21018         2.52963
O         20.64687        16.72788         1.18332
H         21.20801        16.13832         1.73067
O         20.78791         8.06946         1.94087
H         21.55844         7.66911         2.39648
O         13.79535        15.52363         1.88300
H         14.08686        14.74329         2.41166
O         11.57176         1.90247         0.86077
H         10.89680         2.32906         1.43028
O         29.86620         4.10235         2.34618
H         29.04175         4.41253         2.78017
O          4.37891         8.48848        -1.66493
H          5.14525         8.77576        -2.20420
O          6.81662        16.94698        -1.31963
H          7.50989        17.34247        -1.88828
O         30.91997         7.51920        -1.43565
H         30.88943         8.39354        -1.87820
O         12.00489         1.63077        -2.77221
H         11.99749         2.58203        -3.00688
O         18.17607         8.07376         1.62671
H         19.02743         7.95376         2.11385
O         27.06449         0.06893        -0.05723
H         27.04259         0.36917        -0.98877
O         24.33731        17.09757        -2.77575
H         25.22408        17.24953        -3.18255
O         31.21310         6.50437         2.05735
H         31.04127         5.62638         2.47885
O         23.08538        14.60993        -2.34543
H         23.46583        15.36871        -2.85459
H          0.34239         1.43017        -0.00966
H          0.30080         3.87400         0.30389
H          2.49469         0.21332        -0.30053
H          0.31771         5.73897         0.80614
H          0.23046         8.13794         1.02402
H          0.25259        10.14970         1.08242
H          0.20629        12.60189         0.97919
H          0.19161        14.49434         0.10741
H          0.23506        16.95941        -0.04539
H          1.49436        19.09504        -0.01737
H          4.96613         0.26694        -0.50575
H          3.64087        20.32306         0.23606
H          7.43417         0.32163        -0.62433
H          6.05998        20.30966         0.35089
H          9.86445         0.35987        -0.82993
H          8.62060        20.27052         0.44991
H         12.38633         0.42700        -1.14022
H         10.88135        20.36665         0.09256
H         14.71193         0.39368        -0.92388
H         13.69642        20.28581        -0.15407
H         17.18770         0.29637        -0.36628
H         15.95329        20.19492        -0.76296
H         19.67750         0.26079         0.00419
H         18.38267        20.22748        -0.66605
H         22.14633         0.25724         0.27652
H         20.89108        20.28136        -0.69477
H         24.60976         0.25756         0.52104
H         23.39591        20.29921        -0.54413
H         27.06654         0.83992         1.84405
H         25.80172        20.27795        -0.42944
H         29.51547         0.25589         0.28438
H         28.18554        20.33435        -0.08230
H         31.60680         1.51296        -0.27704
H         32.83410         3.61714        -0.49321
H         32.97596         6.04203        -0.23907
H         33.07935         8.03981         0.42440
H         33.06760        10.46049         0.47711
H         32.96538        12.41514         0.79220
H         32.82748        14.83111         1.00140
H         32.65770        16.71359         1.36647
H         30.45111        20.36944         0.84311
H         32.46938        19.14848         1.61230
