         410
 CSIRO Nanostructure Databank - Neutral Graphene Oxide Data Set
C         28.34800        27.50150        -2.48537
C         28.26613        28.88406        -2.03588
C         26.99373        29.55859        -1.95838
C         28.05943        31.66111        -1.28784
C         26.91753        30.90838        -1.69266
C         28.03336        33.05054        -1.03042
C         26.84523        33.81211        -1.27092
C         27.97113        35.90763        -0.72122
C         26.81667        35.17435        -1.13539
C         27.96286        37.33593        -0.62444
C         26.80067        38.10322        -1.02300
C         27.85983        40.27360        -0.49859
C         26.74840        39.46048        -1.01742
C         27.95853        41.73625        -0.78655
C         26.79845        42.47708        -1.12721
C         28.07380        44.54671        -1.14208
C         26.85340        43.84440        -1.31405
C         28.15953        45.95647        -1.31483
C         30.81710        27.54450        -2.39684
C         29.52872        26.84900        -2.59475
C         30.74313        28.99247        -2.00446
C         29.41532        29.57909        -1.72167
C         30.55561        31.65538        -0.80015
C         29.28394        30.85838        -0.93370
C         30.46476        33.06611        -0.40624
C         29.20043        33.76491        -0.54815
C         30.29434        35.90509         0.18486
C         29.14631        35.16759        -0.38430
C         30.34671        37.37676         0.07527
C         29.14631        38.03498        -0.26268
C         30.42377        40.19513        -0.23187
C         29.10629        39.50612        -0.14153
C         30.45387        41.67420        -0.42856
C         29.17750        42.41037        -0.62195
C         30.48222        44.51697        -0.57154
C         29.24631        43.82026        -0.78370
C         30.54254        45.91173        -0.77972
C         29.36067        46.61125        -1.15048
C         33.16038        24.64368        -1.42760
C         32.09031        25.32641        -1.94669
C         33.22890        27.49143        -1.36814
C         32.11902        26.78381        -2.05217
C         33.17722        28.87786        -1.10021
C         31.95345        29.66537        -1.41797
C         32.93704        31.65307        -0.21182
C         31.74972        30.99055        -0.78186
C         32.94617        33.13293        -0.28694
C         31.62726        33.76923        -0.11850
C         32.88997        35.89358         0.50652
C         31.61755        35.14751         0.35230
C         32.77869        37.33664         0.79449
C         31.55258        38.08224         0.39455
C         32.81155        40.24979         0.42125
C         31.61619        39.48860         0.28402
C         32.84100        41.66986         0.38010
C         31.65633        42.41433         0.01635
C         32.76324        44.58750         0.44758
C         31.63666        43.79992        -0.08070
C         32.87662        45.99792         0.02377
C         31.80905        46.62160        -0.60182
C         33.11748        48.66323        -1.01637
C         31.97606        47.94528        -1.16282
C         35.72514        23.21897        -1.28567
C         35.49521        24.48287        -0.49757
C         34.33923        25.30882        -1.00659
C         35.51982        27.40577        -0.41402
C         34.36612        26.72978        -0.93723
C         35.48722        28.81331        -0.22981
C         34.28534        29.51657        -0.49476
C         35.46582        31.69616         0.17695
C         34.21790        30.92540        -0.05267
C         35.44764        33.08018         0.30646
C         34.21263        33.85716         0.02249
C         35.37798        35.97902         0.64429
C         34.12177        35.27538         0.44542
C         35.38521        37.37461         0.72275
C         34.10057        38.09432         0.82780
C         35.40301        40.28088         0.52727
C         34.08899        39.52248         0.42990
C         35.30887        41.72082         0.78527
C         34.06704        42.36904         0.70007
C         35.26416        44.57067         1.06928
C         33.98668        43.82685         0.95672
C         35.31828        45.89773         0.66798
C         34.12675        46.72781         0.31198
C         35.49125        49.03878        -0.23474
C         34.23006        48.20604        -0.17294
C         35.49422        50.42051         0.01626
C         38.08545        23.18609        -0.62856
C         36.92888        22.59803        -1.26460
C         38.00795        24.56514        -0.24837
C         36.77593        25.26566        -0.34881
C         37.89783        27.33767         0.30963
C         36.73269        26.65965        -0.14486
C         37.78934        28.74651         0.70665
C         36.62851        29.53139         0.29060
C         37.87972        31.65555         0.71551
C         36.66046        30.93635         0.41829
C         37.86922        33.09149         0.75450
C         36.64866        33.81150         0.60732
C         37.83328        35.95048         0.92485
C         36.61778        35.24020         0.71162
C         37.83325        37.40243         0.99527
C         36.61379        38.11742         0.84132
C         37.80147        40.26033         1.22690
C         36.62738        39.54381         0.90468
C         37.76778        41.71673         1.35069
C         36.52312        42.40007         1.18139
C         37.64388        44.42465         1.85465
C         36.46504        43.80756         1.38578
C         37.71235        46.43295         1.19079
C         36.60738        46.47927         0.38716
C         37.96697        49.04185        -0.02201
C         36.74710        48.43947        -0.39654
C         37.95266        50.45849         0.11807
C         36.70529        51.11945         0.09466
C         40.60604        20.41206        -0.77258
C         39.41777        21.08640        -0.85426
C         40.47055        23.13921         0.00086
C         39.31593        22.47354        -0.49517
C         40.41842        24.54544         0.30971
C         39.19105        25.26104         0.15538
C         40.34667        27.36902         0.76973
C         39.12949        26.65542         0.45405
C         40.35794        28.77477         0.92479
C         39.09387        29.51069         1.02616
C         40.34328        31.66040         1.00300
C         39.09971        30.96802         0.89242
C         40.35625        33.08585         1.02538
C         39.09705        33.80676         0.92825
C         40.31079        35.96755         1.02640
C         39.04625        35.21507         1.00525
C         40.26305        37.38103         1.50885
C         39.01548        38.14547         1.28166
C         40.23868        40.26628         1.99256
C         39.01559        39.54136         1.42838
C         40.26770        41.76455         1.70412
C         38.98268        42.44858         1.58571
C         40.14941        44.72762         1.91288
C         38.92691        43.85714         1.75383
C         40.14127        46.32032         1.70534
C         39.00610        46.97363         0.92933
C         40.39430        48.95721         0.47516
C         39.12894        48.26259         0.39014
C         40.42275        50.40444         0.35193
C         39.22717        51.15093         0.28514
C         40.48433        53.23131         0.52655
C         39.28804        52.57377         0.35941
C         43.02947        20.38622        -0.24070
C         41.78981        21.06691        -0.31035
C         42.88760        23.07304         0.57944
C         41.71660        22.42929         0.09836
C         42.77739        24.44594         1.18777
C         41.57744        25.23150         0.73549
C         42.79562        27.35454         1.12269
C         41.57540        26.64226         0.87585
C         42.79394        28.77098         1.18463
C         41.56999        29.49719         1.06394
C         42.79851        31.63863         1.33232
C         41.57234        30.93473         1.13659
C         42.82109        33.06563         1.37549
C         41.59744        33.75716         1.18584
C         42.85213        35.95385         1.41447
C         41.60879        35.22287         1.10068
C         42.81625        37.33094         1.45801
C         41.56539        38.09547         1.66502
C         42.71982        40.28146         1.60391
C         41.55659        39.58224         1.66100
C         42.75477        41.75324         1.83334
C         41.44641        42.47346         1.76738
C         42.73916        44.71151         1.52317
C         41.46822        43.96928         1.89231
C         42.64560        46.20709         1.52799
C         41.47138        46.86368         1.19700
C         42.88770        48.85566         0.37917
C         41.55341        48.23650         0.77206
C         42.89787        50.35479         0.57083
C         41.67830        51.08395         0.50542
C         42.95013        53.15825         0.81001
C         41.70623        52.50388         0.61317
C         44.16391        21.03213         0.21038
C         45.32252        23.08918         1.07635
C         44.11178        22.38521         0.64143
C         45.29392        24.51255         1.21498
C         44.06409        25.22323         1.12964
C         45.25240        27.33523         1.47938
C         44.03698        26.62107         1.22544
C         45.20059        28.74376         1.66480
C         44.00700        29.49193         1.45121
C         45.22748        31.61965         1.88088
C         44.02029        30.91278         1.52618
C         45.32355        33.07543         1.74027
C         44.08996        33.78251         1.51531
C         45.32519        35.92134         1.38440
C         44.09126        35.20504         1.44764
C         45.32450        37.35229         1.25909
C         44.04589        38.08896         1.22869
C         45.29925        40.30971         1.42137
C         43.99700        39.58443         1.28436
C         45.29039        41.76638         1.17889
C         44.06997        42.48873         1.64679
C         45.42112        44.59326         1.33342
C         44.05156        43.97036         1.39687
C         45.66869        45.87566         1.72220
C         43.82211        47.02364         1.68517
C         45.38406        48.85976         0.96460
C         44.06241        48.22593         1.08561
C         45.37992        50.25815         0.70266
C         44.11936        51.01865         0.72980
C         44.12251        52.43477         0.86884
C         47.71423        23.12005         1.57473
C         46.53375        22.42306         1.30641
C         47.74448        24.52629         1.59801
C         46.51088        25.22574         1.45250
C         47.69014        27.33744         1.98848
C         46.48672        26.63896         1.60847
C         47.51375        28.64691         2.46225
C         46.33075        29.40438         2.21646
C         48.16877        31.93278         2.26130
C         46.25379        30.81172         2.41013
C         47.89225        33.19238         1.71787
C         46.58203        33.79970         1.66704
C         47.74304        35.94308         0.97235
C         46.55578        35.21390         1.37009
C         47.69971        37.34990         0.74197
C         46.49408        38.05538         1.01232
C         47.68711        40.24086         0.52015
C         46.54588        39.53118         1.12358
C         47.62650        41.64050         0.32085
C         46.41711        42.39127         0.68717
C         47.67380        44.48343         0.33699
C         46.50721        43.84916         0.70592
C         47.89783        45.91149         0.60380
C         46.79669        46.70860         1.27056
C         47.76802        48.78519         0.33435
C         46.62217        48.14234         0.90379
C         47.74286        50.18788         0.16944
C         46.58441        50.91382         0.39625
C         50.20365        24.58187         1.34829
C         48.98684        25.28258         1.69180
C         50.28928        27.41362         1.88255
C         48.98396        26.66728         1.90747
C         50.33291        28.89035         1.62308
C         49.45272        29.76876         2.21364
C         50.26457        31.76347         1.01819
C         49.30982        31.16468         1.88892
C         50.24233        33.12888         0.76392
C         49.16979        33.96120         1.41831
C         50.05977        35.92949         0.13946
C         48.96854        35.27870         0.74937
C         49.99236        37.33099        -0.12660
C         48.83783        38.05628         0.25402
C         49.93068        40.16534        -0.46952
C         48.80742        39.49277         0.09241
C         49.91622        41.58873        -0.58974
C         48.75417        42.30458        -0.22348
C         49.98018        44.47780        -0.71320
C         48.64934        43.77017        -0.56610
C         50.02696        45.86236        -0.67421
C         48.92027        46.63373        -0.16740
C         49.93570        48.68265        -0.98645
C         48.89676        48.02448        -0.19950
C         51.38143        25.21383         1.14197
C         52.69571        27.33445         0.77121
C         51.54692        26.64180         1.43769
C         52.62922        28.70566         0.45662
C         51.35974        29.44204         0.70595
C         52.56023        31.62905         0.04366
C         51.31142        30.90979         0.42099
C         52.42626        33.03375        -0.34430
C         51.31292        33.77295         0.04933
C         52.32984        35.86823        -0.80876
C         51.26185        35.20523        -0.19769
C         52.25102        37.26091        -1.13483
C         51.10006        38.00165        -0.73723
C         52.17542        40.07694        -1.50614
C         51.06071        39.41042        -0.91892
C         52.20250        41.49843        -1.51252
C         51.10459        42.27240        -1.07029
C         52.27494        44.40645        -1.60368
C         51.14470        43.71299        -1.09950
C         52.30239        45.81800        -1.74359
C         51.31429        46.61656        -0.92604
C         51.03224        48.01892        -1.40781
C         54.85881        27.19515        -0.35578
C         53.84882        26.60723         0.38530
C         54.80207        28.57455        -0.69183
C         53.69593        29.33686        -0.22489
C         54.76005        31.40489        -1.27631
C         53.76833        30.80770        -0.37013
C         54.52911        32.82641        -1.77869
C         53.64268        33.67027        -0.87138
C         54.56131        35.76895        -2.03215
C         53.58747        35.15847        -1.10961
C         54.42466        37.12536        -2.35795
C         53.31371        37.90387        -1.83809
C         54.34277        39.97088        -2.73808
C         53.28013        39.31402        -2.02471
C         54.42721        41.38660        -2.74547
C         53.45948        42.14109        -1.92672
C         54.45322        44.30469        -2.89723
C         53.48460        43.66705        -1.99478
C         54.34091        45.68463        -3.10666
C         53.33429        46.42770        -2.47004
C         55.81048        29.20732        -1.47348
C         55.72724        30.56592        -1.82013
C         55.74854        33.60738        -2.19748
C         55.70106        34.95277        -2.39059
C         55.37434        37.80034        -3.19958
C         55.33226        39.15396        -3.38153
C         55.44440        42.11409        -3.41363
C         55.45687        43.50022        -3.49260
O         54.09553        42.93840        -0.87279
O         37.56379        45.71428         2.39466
O         36.74905        47.11073        -0.86591
O         46.18377        39.92681         2.51931
O         51.30503        26.98088         2.84645
O         30.69844        40.75337        -1.57322
O         47.25676        31.39611         3.18130
O         43.24200        44.27303         0.19591
O         33.75382        33.67848        -1.38956
O         43.91991        38.91867        -0.02842
O         48.55465        29.25659         3.16479
O         38.21477        29.00893         2.08568
O         33.36972        37.79988         2.05817
O         33.88967        47.87863         1.20845
O         33.27897        31.10383         1.11137
O         43.61341        42.10609         2.98166
O         31.80464        27.27618        -3.42059
O         50.80111        29.96257        -0.58386
O         34.87442        39.81455        -0.77074
O         48.00656        46.33771         2.02459
O         32.96647        44.29649         1.88773
O         28.21276        39.98281         0.91449
O         40.87765        44.42538         3.15319
O         30.71433        35.38574         1.48974
O         41.07926        35.74875        -0.20292
O         40.81599        37.56176         2.86122
O         44.76637        46.50183         2.57602
O         31.62565        29.81023        -2.85625
O         54.28460        34.56515         0.07051
O         53.67993        31.45263         0.97900
O         40.04858        46.87256         3.04162
H         40.53379        46.25848         3.64168
O         43.03989        48.59655        -1.05912
H         42.28726        49.02597        -1.51811
O         49.71546        34.31369         2.75188
H         49.06141        34.89583         3.19446
O         51.96289        46.77111         0.38627
H         51.29171        47.13904         1.00056
O         48.03782        43.81876        -1.91051
H         48.62394        43.31810        -2.51687
O         42.53848        24.21153         2.63459
H         43.31465        23.71795         2.97683
O         35.10721        24.05691         0.86622
H         35.86845        23.56606         1.24317
O         53.70545        32.64123        -2.98648
H         54.23895        32.14585        -3.64349
O         40.08700        40.17624         3.44070
H         40.23246        39.22820         3.67956
O         29.02636        30.39473         0.45823
H         28.91560        31.19530         1.01576
H         27.40769        26.97348        -2.70171
H         26.08605        29.00174        -2.23128
H         25.94199        31.40397        -1.79416
H         25.93198        33.29994        -1.60034
H         25.87803        35.70033        -1.35035
H         25.92534        37.56391        -1.40866
H         25.86155        39.96209        -1.42986
H         25.83639        41.95911        -1.24017
H         25.94537        44.40213        -1.58381
H         27.25398        46.51997        -1.58119
H         29.54817        25.80585        -2.94014
H         29.39223        47.70153        -1.27764
H         33.10756        23.54845        -1.36164
H         31.22430        24.77688        -2.33858
H         33.24914        49.60074        -1.57663
H         31.18163        48.34619        -1.80703
H         34.88268        22.74084        -1.80481
H         34.54557        50.96166         0.13658
H         37.03820        21.63673        -1.78609
H         36.66427        52.20840         0.22991
H         40.66326        19.35255        -1.06143
H         38.52582        20.55044        -1.20463
H         40.50893        54.32849         0.59312
H         38.36202        53.16054         0.29457
H         43.08314        19.33554        -0.56034
H         42.96912        54.25248         0.91592
H         45.11670        20.48631         0.23286
H         45.06890        52.96617         1.03750
H         48.62659        22.53799         1.75894
H         46.57454        21.32588         1.26939
H         48.63986        50.72427        -0.16379
H         46.60013        52.00004         0.23627
H         50.14202        23.51202         1.11022
H         49.80478        49.73220        -1.28328
H         52.22119        24.64984         0.71391
H         51.79338        48.55530        -1.99196
H         55.72371        26.59801        -0.67789
H         53.94689        25.54838         0.65984
H         55.07882        46.19921        -3.73904
H         53.35193        47.52060        -2.57899
H         56.65054        28.60513        -1.84684
H         56.48473        30.97866        -2.50373
H         56.66700        33.06072        -2.45877
H         56.58995        35.45092        -2.80626
H         56.17017        37.21910        -3.68500
H         56.10075        39.62896        -4.00603
H         56.23619        41.56516        -3.94190
H         56.24345        43.99392        -4.08203
