         344
 CSIRO Nanostructure Databank - Neutral Graphene Oxide Data Set
C          1.18454         3.48168        -1.07870
C         -0.00442         4.17860        -0.97945
C          1.18946         6.28926        -0.63188
C         -0.00472         5.56937        -0.75958
C          1.18420         7.73342        -0.44186
C          0.05744         8.43669        -0.08607
C          1.20437        10.61169        -0.09390
C          0.04284         9.86009        -0.00432
C          1.20193        12.07851         0.03529
C         -0.03985        12.82555         0.00813
C          1.09905        15.01066         0.14533
C         -0.07734        14.18794         0.13904
C          0.96907        16.40839         0.25435
C         -0.13411        17.13391         0.86901
C          1.34607        19.17717         1.22875
C          0.03961        18.40795         1.30561
C          1.21447        20.65290         0.86073
C          0.00701        21.35212         0.84925
C          1.17205        23.48823         0.56505
C         -0.02132        22.73166         0.62553
C          1.12851        24.94772         0.39680
C         -0.01716        25.70079         0.31598
C          1.16000        27.86354         0.08797
C         -0.00176        27.14214         0.23701
C          1.22583        29.28856        -0.12139
C          3.65865         3.49986        -1.09220
C          2.42490         4.16321        -0.92790
C          3.68094         6.22895        -0.48131
C          2.43493         5.57487        -0.69420
C          3.71332         7.71206        -0.61936
C          2.42210         8.50688        -0.84570
C          3.65511        10.56938         0.01755
C          2.46275         9.91603        -0.25908
C          3.63446        11.98383         0.54989
C          2.38740        12.76234         0.17519
C          3.75399        14.82766        -0.09265
C          2.42631        14.26607         0.38914
C          3.91057        16.19849        -0.46353
C          2.02233        17.29320        -0.18875
C          3.57893        19.24332        -0.18885
C          2.30052        18.54010         0.25868
C          3.65033        20.65759         0.35293
C          2.43324        21.36815         0.63950
C          3.71808        23.53453         0.78994
C          2.40720        22.79526         0.64964
C          3.64717        24.89382         0.06871
C          2.43160        25.70350         0.54980
C          3.68703        27.90166         0.30795
C          2.44190        27.10118        -0.12526
C          3.69423        29.28957        -0.29013
C          2.40847        29.94161        -0.36762
C          6.08279         3.43752        -1.24242
C          4.88723         4.11729        -0.80258
C          6.09640         6.19207         0.11878
C          4.88509         5.49877        -0.33697
C          6.06048         7.65618         0.38621
C          4.95468         8.43947        -0.23495
C          6.11992        10.55610         0.29191
C          4.91256         9.88890         0.04886
C          6.14165        12.00192         0.25408
C          4.93534        12.69986         0.27889
C          6.19280        14.81429         0.15659
C          4.94693        14.11856         0.16921
C          6.21269        16.29871         0.40624
C          4.93209        16.98492         0.00203
C          6.14937        19.16971        -0.11171
C          4.85190        18.47230         0.29321
C          6.14898        20.62400        -0.06351
C          4.89105        21.34793         0.23990
C          6.14106        23.48105        -0.08654
C          4.91170        22.73425         0.35009
C          6.19245        24.95027         0.38585
C          4.91689        25.71286         0.14729
C          6.15065        27.81838        -0.19804
C          4.94011        27.09443         0.03105
C          6.16117        29.22653        -0.40930
C          4.88938        29.92668        -0.50486
C          8.61184         3.69433        -1.22234
C          7.32954         3.70911        -0.66982
C          8.57754         6.15015         0.73838
C          7.24423         5.54417         0.50606
C          8.59754         7.65931         0.97966
C          7.30029         8.40355         0.82354
C          8.56586        10.53600         0.47476
C          7.36005         9.85643         0.51147
C          8.60081        11.94296         0.14970
C          7.39728        12.68123         0.09752
C          8.64098        14.84976        -0.11845
C          7.41174        14.12615         0.03769
C          8.66867        16.25922        -0.20494
C          7.32978        16.95482        -0.40774
C          8.60091        19.12627        -0.53665
C          7.32029        18.45630        -0.24859
C          8.59880        20.64386        -0.48018
C          7.34061        21.31119        -0.14272
C          8.67061        23.47640        -0.06550
C          7.41264        22.73815         0.34187
C          8.67804        24.87132        -0.19874
C          7.38684        25.58840        -0.28099
C          8.67028        27.76997        -0.54353
C          7.38257        27.07179        -0.48918
C          8.65011        29.20175        -0.61483
C          7.38675        29.88464        -0.62080
C         10.98997         3.88433        -1.22876
C          9.78045         4.35407        -0.68783
C         11.02977         6.19111         0.44320
C          9.80383         5.52030         0.19401
C         11.05251         7.63320         0.76605
C          9.86688         8.35654         0.79018
C         11.03301        10.46715         0.12342
C          9.86492         9.87066         0.90473
C         11.05653        11.96829         0.20601
C          9.85490        12.63547         0.03174
C         11.13691        14.79616        -0.07489
C          9.88006        14.05764        -0.45994
C         11.18334        16.24960        -0.46224
C          9.87378        16.98581        -0.28284
C         11.08263        19.15114        -0.26863
C          9.89192        18.41280        -0.34649
C         11.07827        20.59334        -0.21633
C          9.88288        21.32759        -0.24554
C         11.11550        23.47133        -0.26038
C          9.88661        22.75615        -0.16798
C         11.11819        24.89272        -0.35034
C          9.88395        25.59705        -0.38611
C         11.11999        27.74379        -0.58283
C          9.87374        27.04173        -0.51993
C         11.11307        29.17860        -0.70408
C          9.87738        29.88127        -0.71953
C         13.46654         3.78399        -1.20056
C         12.24492         4.38247        -0.81293
C         13.51534         5.86388         0.59038
C         12.25478         5.49883         0.08924
C         13.54645         7.86071         1.11847
C         12.30445         8.42602         0.79307
C         13.52507        10.55593         0.57974
C         12.32579         9.81447         0.51410
C         13.50072        12.00101         0.55622
C         12.28434        12.68120         0.38360
C         13.41828        14.88634         0.93936
C         12.24537        14.13720         0.36034
C         13.50211        16.33335         0.48888
C         12.39554        16.98813         0.04321
C         13.43428        19.20147         0.61441
C         12.44252        18.46484        -0.29745
C         13.53588        20.64626         0.16857
C         12.32553        21.32616        -0.09847
C         13.57775        23.46249        -0.20185
C         12.34345        22.74632        -0.21784
C         13.58412        24.90092        -0.26998
C         12.36335        25.60390        -0.38394
C         13.58450        27.74651        -0.53092
C         12.35056        27.03830        -0.50099
C         13.57489        29.17124        -0.69686
C         12.34724        29.86089        -0.78641
C         15.94793         3.73680        -1.19672
C         14.71502         4.33700        -0.83612
C         15.96131         6.26427         0.19140
C         14.74803         5.50766         0.00168
C         15.98600         7.67267         0.55632
C         14.79315         8.44677         0.78165
C         16.01122        10.57521         0.58621
C         14.78467         9.86883         0.64457
C         16.00967        12.02385         0.71585
C         14.73951        12.74444         0.74227
C         15.93282        14.89138         1.14530
C         14.71940        14.12832         0.82385
C         15.96401        16.35120         0.97398
C         14.76885        17.05918         0.71572
C         16.00492        19.19379         0.85297
C         14.74746        18.46585         0.70360
C         16.01070        20.66981         0.51869
C         14.74438        21.34576         0.13968
C         16.06048        23.45864        -0.00551
C         14.79024        22.74486        -0.08104
C         16.04652        24.91555        -0.02776
C         14.83106        25.61245        -0.19463
C         16.02889        27.78551        -0.34719
C         14.82478        27.05551        -0.35555
C         16.01661        29.18867        -0.55193
C         14.81800        29.86420        -0.73380
C         18.40466         3.67423        -1.11166
C         17.15708         4.33160        -0.82903
C         18.42150         6.32645        -0.11007
C         17.17133         5.64477        -0.23346
C         18.44550         7.71489         0.22187
C         17.21039         8.40249         0.44960
C         18.47798        10.53069         0.50599
C         17.22715         9.83820         0.53738
C         18.50365        12.04126         0.40322
C         17.21083        12.70286         0.81413
C         18.52431        14.87986         1.00551
C         17.25711        14.12089         1.19041
C         18.51232        16.28810         0.98993
C         17.25511        17.05555         1.36188
C         18.49840        19.16774         0.65916
C         17.28362        18.47530         0.85405
C         18.52968        20.57484         0.36426
C         17.26373        21.26726        -0.07401
C         18.53728        23.49408         0.38790
C         17.25044        22.76884         0.09859
C         18.50552        24.92034        -0.10889
C         17.30118        25.61459        -0.06895
C         18.52597        27.74381        -0.63791
C         17.32896        27.12219         0.04204
C         18.49757        29.11645        -0.93624
C         17.31771        29.95752        -0.50697
C         19.59922         4.28937        -0.86411
C         20.86504         6.33453        -0.26049
C         19.63782         5.64540        -0.39925
C         20.88921         7.68028         0.05662
C         19.68949         8.41289         0.25237
C         20.93386        10.60548         0.48587
C         19.68758         9.84527         0.42490
C         20.96380        11.91356         0.80667
C         19.69432        12.66024         1.14454
C         20.92438        14.86837         0.68194
C         19.73356        14.15851         0.88853
C         20.91640        16.25627         0.61162
C         19.72899        16.99512         0.80107
C         20.94800        19.17882         0.66378
C         19.74449        18.45222         0.73691
C         20.95875        20.55201         0.46215
C         19.74793        21.26718         0.26312
C         20.86760        23.37452        -0.46120
C         19.76063        22.70428        -0.00326
C         20.86315        24.78146        -0.69534
C         19.72340        25.55779        -0.53607
C         20.76926        27.60493        -1.55568
C         19.68122        26.97724        -0.91635
C         20.71989        28.95755        -1.88566
C         19.59495        29.71948        -1.56524
O          7.24149         4.16428         0.66505
O          7.14210        26.10415        -1.61664
O         13.56290         6.62438         1.76818
O          4.73079         8.09476        -1.64800
O         16.55622        14.44968         2.43900
O          6.26952         8.02815         1.79193
O          2.85382        16.76071        -1.18961
O          8.57173        19.92362        -1.77144
O          8.67421         6.70925         2.09181
O         16.01940        20.28544         1.89774
O          2.55414        26.95233        -1.57378
H          1.65157        26.83093        -1.93698
O         11.37253        16.24203        -1.95046
H         12.18351        15.71800        -2.13185
O         13.14902        14.94436         2.38128
H         13.97221        15.23955         2.82667
O          2.29239         8.69480        -2.28817
H          3.21219         8.75849        -2.63874
O          2.55013        14.41854         1.88094
H          1.66650        14.21980         2.26214
O          3.67594        28.16364         1.73299
H          3.67570        27.29069         2.19587
O          6.40420        25.00816         1.83154
H          5.55179        24.70638         2.24730
O         10.78514        10.12801        -1.27723
H         11.31858        10.72944        -1.83755
O          6.99173        16.71640        -1.80533
H          7.57645        17.27809        -2.35751
O          1.94980        19.13350         2.56351
H          2.92271        18.99973         2.44648
O         12.94151        18.58094        -1.65631
H         12.31830        18.07620        -2.22824
O          6.12322        23.48804        -1.53131
H          5.23998        23.83375        -1.81098
O          3.94851        23.78997         2.22386
H          3.93169        22.92182         2.68116
O         12.84565        19.21128         1.94691
H         13.51499        19.57817         2.56347
O          3.48335        24.52614        -1.32830
H          3.33439        25.37059        -1.82714
O         18.70323        12.35974        -1.01119
H         18.03816        11.85986        -1.52928
O         19.44576        12.48210         2.56333
H         20.16746        12.91870         3.06092
O          3.60315        19.34793        -1.62566
H          3.43758        18.44466        -1.98348
O          4.76112        18.57627         1.75244
H          5.49486        18.01721         2.11919
O         17.22687        31.15979        -1.27552
H         17.05638        30.91523        -2.20789
O          9.86934        13.94245        -1.93245
H         10.05595        14.84720        -2.28281
O          3.56497        11.85892         2.01721
H          3.42639        12.77703         2.35736
O         10.06643        10.19521         2.30282
H          9.40060         9.70777         2.83232
O          2.56037        25.87678         1.98658
H          1.71634        26.25226         2.31527
O         18.61939        23.60055         1.86296
H         17.93208        24.24075         2.14679
O         17.26036        17.12711         2.83761
H         17.16928        16.19562         3.15370
O         17.48661        27.39975         1.48407
H         16.66883        27.09447         1.93111
O         17.14766        21.01198        -1.51636
H         17.91308        21.43662        -1.95812
O          7.46373        22.62112         1.79152
H          7.37489        23.53889         2.15512
O          6.51481        16.51767         1.82201
H          6.06028        15.81859         2.33815
H          1.18563         2.39816        -1.26424
H         -0.96297         3.65197        -1.08786
H         -0.96891         6.09412        -0.71652
H         -0.87791         7.90513         0.14114
H         -0.92107        10.34680         0.19784
H         -0.98803        12.28410        -0.11015
H         -1.05476        14.69159         0.09772
H         -1.08525        16.61639         1.06824
H         -0.78106        18.88181         1.86562
H         -0.94230        20.81709         0.99373
H         -0.99495        23.23654         0.56127
H         -1.00406        25.21560         0.32212
H         -0.96721        27.66816         0.28103
H          0.28176        29.85466        -0.12897
H          3.65886         2.45463        -1.43494
H          2.38687        31.01791        -0.59944
H          6.00255         2.77060        -2.11400
H          4.90194        30.98021        -0.82672
H          8.75584         3.14731        -2.16662
H          7.38510        30.97352        -0.78048
H         10.96184         3.04669        -1.94091
H          9.88770        30.97847        -0.79852
H         13.44389         2.87088        -1.81257
H         12.35257        30.95583        -0.89332
H         15.94978         2.78797        -1.75287
H         14.82863        30.95503        -0.87470
H         18.37695         2.65578        -1.52573
H         17.49475        30.27499         0.55816
H         20.54805         3.77355        -1.07159
H         21.80638         5.79651        -0.44367
H         21.86094         8.18680         0.12355
H         21.88378        10.08191         0.30891
H         21.93669        12.41210         0.93050
H         21.87938        14.33871         0.56550
H         21.86607        16.77422         0.42367
H         21.91102        18.66307         0.77863
H         21.91834        21.08607         0.44220
H         21.78684        22.82058        -0.70268
H         21.79351        25.23430        -1.06368
H         21.67414        27.03255        -1.80060
H         21.57867        29.42939        -2.38339
H         19.56078        30.79370        -1.79535
