         404
 CSIRO Nanostructure Databank - Neutral Graphene Oxide Data Set
C          1.45226         3.81549         3.08133
C          0.27299         4.54139         3.17567
C          1.40835         6.58627         2.45115
C          0.24349         5.90805         2.87070
C          1.39720         7.98502         2.09993
C          0.24842         8.82308         2.37679
C          1.15334        10.57815         0.88056
C          0.15941        10.08692         1.90164
C          1.19803        12.07806         0.69298
C          0.03673        12.84865         0.81076
C          1.10193        14.86652        -0.07207
C          0.00500        14.21956         0.50252
C          1.08102        16.24355        -0.48126
C         -0.07647        17.02905        -0.41799
C          1.09539        19.17090        -0.76625
C         -0.07156        18.42771        -0.56237
C          1.13355        20.61148        -0.69601
C         -0.03089        21.37371        -0.39838
C          1.17186        23.48411        -0.70715
C         -0.01382        22.75087        -0.41416
C          1.16599        24.90555        -0.80729
C          0.00882        25.70599        -0.68060
C          1.24682        27.76736        -1.24597
C          0.02598        27.06427        -0.94725
C          1.23204        29.21107        -1.48629
C          0.08758        29.88230        -1.84557
C          1.31423        31.95476        -2.18090
C          0.15320        31.23613        -2.29027
C          1.49533        34.23018        -2.12568
C          0.34434        35.03305        -2.19667
C          1.39727        36.62048        -0.72601
C          0.26608        36.19604        -1.44867
C          1.37698        37.89523        -0.06726
C          3.86931         3.73334         2.58803
C          2.65572         4.45289         2.67346
C          3.83216         6.49952         1.94033
C          2.62954         5.84877         2.34392
C          3.80330         7.87834         1.53721
C          2.55622         8.59781         1.56290
C          3.68045        10.61607         0.70340
C          2.51257         9.95069         1.09533
C          3.63439        11.99005         0.24663
C          2.39620        12.68338         0.23667
C          3.63273        14.78434        -0.59252
C          2.31809        14.05837        -0.29984
C          3.62742        16.25730        -0.70331
C          2.31955        16.89232        -0.96375
C          3.62763        19.11386        -1.00238
C          2.32777        18.42330        -1.08417
C          3.57975        20.56839        -1.23885
C          2.34426        21.32273        -0.95628
C          3.66207        23.42899        -0.94495
C          2.38496        22.73491        -0.93630
C          3.68058        24.93191        -0.74514
C          2.41676        25.55976        -1.33730
C          3.72606        27.74725        -1.52514
C          2.44047        27.06368        -1.25645
C          3.76388        29.24366        -1.55766
C          2.49299        29.96931        -1.29324
C          3.79359        32.27769        -1.43553
C          2.51586        31.49022        -1.49070
C          3.79793        33.65602        -1.16795
C          2.61367        34.52438        -1.32149
C          3.77986        36.37950        -0.17730
C          2.58424        35.81990        -0.70861
C          3.76370        37.71533         0.33857
C          2.52035        38.42661         0.45060
C          6.29898         3.66920         2.16953
C          5.07614         4.37556         2.24456
C          6.27537         6.45541         1.63390
C          5.05736         5.78382         1.93691
C          6.23929         7.81965         1.20906
C          4.98623         8.52471         1.12904
C          6.12493        10.59062         0.39469
C          4.94872         9.91946         0.73356
C          6.11829        11.99962         0.10814
C          4.86665        12.68037        -0.02413
C          6.08759        14.80533        -0.29597
C          4.88702        14.07760        -0.29636
C          6.04680        16.28185        -0.27447
C          4.79329        16.98493        -0.64134
C          6.10586        19.14712        -0.81482
C          4.82190        18.43062        -0.83408
C          6.13188        20.55248        -0.92297
C          4.90550        21.31790        -1.20351
C          6.11463        23.43706        -0.45390
C          4.85572        22.75547        -0.92555
C          6.18306        24.89566        -0.80575
C          4.96457        25.55312        -1.36948
C          6.17004        27.76930        -0.97472
C          4.99362        27.05708        -1.24328
C          6.25030        29.21692        -0.97340
C          5.07378        29.97634        -1.44067
C          6.28387        32.12499        -0.80501
C          5.06477        31.50519        -1.36007
C          6.24214        33.52796        -0.54820
C          5.01950        34.27589        -0.68593
C          6.21356        36.29767         0.10891
C          5.00432        35.64275        -0.25744
C          6.19819        37.68169         0.50304
C          4.96395        38.35205         0.66326
C          8.71494         3.59127         1.77406
C          7.53067         4.32733         1.93543
C          8.72873         6.47502         1.50914
C          7.52658         5.77181         1.73063
C          8.69506         7.82848         1.04575
C          7.44740         8.46370         0.86333
C          8.63524        10.59829         0.43385
C          7.38826         9.80021         0.16673
C          8.61842        12.06598         0.22739
C          7.32789        12.73659        -0.02057
C          8.59707        14.86654        -0.30096
C          7.33536        14.13653        -0.18634
C          8.61287        16.26136        -0.44351
C          7.35657        17.02806        -0.31673
C          8.58687        19.13121        -0.79114
C          7.34292        18.45634        -0.67581
C          8.59708        20.55770        -0.89719
C          7.36385        21.27243        -0.86072
C          8.58873        23.39540        -0.91515
C          7.37624        22.69106        -0.79921
C          8.61222        24.83793        -0.71630
C          7.35994        25.58324        -0.68365
C          8.56800        27.72737        -0.42030
C          7.38854        27.04126        -0.72501
C          8.64181        29.15001        -0.33889
C          7.44515        29.89772        -0.65106
C          8.66555        32.01359        -0.16649
C          7.45270        31.35654        -0.56121
C          8.67085        33.44202        -0.04802
C          7.45332        34.18389        -0.17370
C          8.65973        36.28359         0.35641
C          7.44897        35.59230         0.08253
C          8.64375        37.69703         0.62808
C          7.40693        38.36573         0.72493
C         11.26101         3.56629         1.47496
C         10.01341         4.23958         1.81750
C         11.30424         6.47025         1.40755
C         10.01245         5.79294         1.77037
C         11.23747         7.90803         0.93480
C          9.92548         8.54121         0.73266
C         11.10376        10.56386        -0.07375
C          9.91409         9.86423         0.31885
C         11.06386        11.99893        -0.31244
C          9.87118        12.74174        -0.15123
C         11.06953        14.85196        -0.54045
C          9.84106        14.14261        -0.35363
C         11.06058        16.26296        -0.64308
C          9.84197        16.97857        -0.62275
C         11.05868        19.13584        -0.95378
C          9.82969        18.41766        -0.76136
C         11.06119        20.54944        -1.12584
C          9.82118        21.27152        -1.02986
C         11.04288        23.42217        -1.38820
C          9.80345        22.68394        -1.09282
C         11.02896        24.93031        -1.20158
C          9.79314        25.53638        -0.68569
C         11.03210        27.55459         0.29929
C          9.76329        26.91126        -0.12969
C         11.04738        29.05799         0.39530
C          9.88271        29.79817         0.04057
C         11.05524        31.97159         0.39334
C          9.87811        31.27028         0.09531
C         11.09113        33.41215         0.43854
C          9.88372        34.14438         0.23436
C         11.09427        36.27842         0.67380
C          9.89076        35.57041         0.39490
C         11.08056        37.69937         0.90505
C          9.85118        38.38792         0.86047
C         13.67410         3.53944         1.03016
C         12.45836         4.25147         1.19063
C         13.63516         6.34698         0.54603
C         12.48893         5.68922         1.04611
C         13.60003         7.74014         0.15402
C         12.40134         8.48459         0.24545
C         13.48038        10.44034        -0.82691
C         12.29676         9.82105        -0.21956
C         13.46534        11.95608        -1.02100
C         12.26008        12.70951        -0.63706
C         13.55173        14.80594        -0.90431
C         12.29669        14.11126        -0.65653
C         13.57284        16.21985        -0.98483
C         12.36568        17.00415        -0.52497
C         13.48009        19.10496        -1.32151
C         12.30159        18.42948        -1.01415
C         13.50872        20.52871        -1.42878
C         12.29434        21.26056        -1.30456
C         13.54859        23.38691        -1.33354
C         12.32541        22.68905        -1.36755
C         13.58849        24.88749        -1.23637
C         12.30029        25.77363        -1.17656
C         13.39735        27.00737         0.69688
C         12.27307        26.75606        -0.00897
C         13.32650        29.14724         1.50405
C         12.23786        29.74463         0.86009
C         13.30712        31.91861         1.47800
C         12.36185        31.21969         0.52796
C         13.36678        33.40587         1.42346
C         12.27718        34.13625         0.75735
C         13.49611        36.26620         1.22848
C         12.31554        35.56003         0.83841
C         13.47747        37.67052         1.46624
C         12.26984        38.37452         1.26850
C         16.11207         3.50718         0.69362
C         14.87896         4.20075         0.70941
C         16.03065         6.23876        -0.08371
C         14.85376         5.60504         0.38435
C         15.97345         7.60236        -0.51607
C         14.79005         8.35115        -0.39132
C         15.94745        10.47548        -0.97969
C         14.77415         9.75065        -0.74624
C         15.94125        11.90870        -1.04899
C         14.75980        12.64792        -1.03782
C         16.00118        14.77998        -1.26882
C         14.76470        14.08314        -1.05944
C         15.99000        16.19288        -1.45079
C         14.75619        16.89007        -1.32971
C         16.01575        19.08571        -1.81831
C         14.70250        18.33364        -1.63608
C         16.00396        20.53311        -1.55099
C         14.75833        21.23326        -1.46180
C         16.03339        23.24642        -0.83490
C         14.75870        22.64427        -1.28639
C         16.05559        24.64824        -0.36305
C         14.84483        25.48095        -0.67587
C         15.86347        27.07825         0.85913
C         14.72944        26.61302         0.26932
C         15.80522        29.12064         2.00915
C         14.57522        29.81468         1.89205
C         15.48908        31.99442         2.60439
C         14.52676        31.23607         1.93071
C         15.74693        33.36248         2.33330
C         14.69667        34.04894         1.58116
C         15.90047        36.21072         2.09327
C         14.76667        35.56139         1.42901
C         15.84416        37.64993         2.25151
C         14.66408        38.33616         1.90951
C         18.57497         3.49080         0.43845
C         17.31186         4.15910         0.35393
C         18.48453         6.14361        -0.50387
C         17.27564         5.51882        -0.09637
C         18.44715         7.46058        -1.16015
C         17.15027         8.20928        -1.16441
C         18.50436        10.40535        -1.28379
C         17.19053         9.73304        -1.27960
C         18.53342        11.86728        -1.06667
C         17.22433        12.63624        -0.95922
C         18.46559        14.75420        -1.45581
C         17.23669        14.07721        -1.25107
C         18.45513        16.15816        -1.69358
C         17.23932        16.88552        -1.66130
C         18.50123        19.01748        -1.77082
C         17.26942        18.31590        -1.73649
C         18.47203        20.49290        -1.86726
C         17.24270        21.22223        -1.48303
C         18.52810        23.34975        -1.17644
C         17.30546        22.57473        -1.13092
C         18.51267        24.76855        -0.97315
C         17.37465        25.39854        -0.22860
C         18.19052        27.98825         0.24728
C         17.25615        26.78325         0.38919
C         18.27519        29.15078         1.23160
C         17.13430        29.69105         1.94915
C         18.34337        31.86843         2.33825
C         17.28924        30.95747         2.56015
C         18.25022        33.28046         2.65122
C         16.98552        34.00520         2.58335
C         18.13651        36.16855         3.11469
C         16.98663        35.45630         2.53964
C         18.17329        37.64121         3.05747
C         17.00143        38.33569         2.70320
C         19.74423         4.15259         0.14943
C         20.95078         6.24578        -0.48553
C         19.72404         5.49773        -0.32631
C         20.97166         7.55365        -0.85790
C         19.75779         8.22732        -1.35490
C         20.92188        10.47315        -1.54943
C         19.70026         9.72071        -1.41261
C         20.94086        11.84378        -1.60445
C         19.75518        12.62164        -1.40009
C         20.94898        14.79153        -1.51876
C         19.72062        14.02013        -1.46048
C         20.96277        16.11636        -1.76153
C         19.71870        16.85964        -2.15582
C         20.95013        19.08548        -1.73884
C         19.73272        18.34431        -1.84025
C         20.98780        20.45240        -1.63421
C         19.78309        21.25783        -1.84279
C         20.90308        23.48176        -1.77226
C         19.75085        22.71683        -1.54517
C         20.83567        24.87316        -1.76407
C         19.64111        25.50119        -1.37486
C         20.62231        28.52280        -0.38261
C         19.34743        27.88122        -0.73050
C         20.66137        29.46175         0.58279
C         19.45382        29.93628         1.23758
C         20.68120        32.08723         1.74455
C         19.51845        31.28149         1.78581
C         20.65996        33.38275         2.24297
C         19.47337        34.00402         2.68212
C         20.68935        36.23471         3.16472
C         19.48845        35.40282         3.17457
C         20.60939        37.59611         3.36279
C         19.38321        38.29863         3.34104
O         13.23346        11.04536        -2.14602
O         11.55211         7.57605         2.34402
O         15.74213        27.73471         2.07355
O          6.64933        16.79991         0.97392
O          2.85305        14.15839        -1.66651
O         19.08246        20.96851        -3.11290
O         15.15115        34.65517         0.33279
O         13.28907        27.80314         1.84734
O          5.34394        30.78634        -2.63021
O         19.12285         7.50438        -2.45519
O          2.37907        30.86414        -0.14934
O          8.62757        11.46189         1.60632
O          4.26681        20.95472        -2.47683
O         12.78025        32.71259         2.59560
O          1.45515        33.10240        -2.95815
O         14.57477        25.56720        -2.09926
O         16.32418        31.31830         3.51250
O          2.20726        17.54997        -2.25977
O         18.63956        35.59614         4.35248
O         18.17985        28.64302        -1.08719
O         10.86542        24.34015        -2.53967
O         15.85866        23.63335         0.65507
O         19.52223        26.84878        -1.67829
O         16.92502         8.85768        -2.44338
O         10.10603         5.11815         3.02790
O         15.19618        18.66071        -2.97212
O         17.98222        12.25806         0.25548
O          3.69449        28.50562        -2.82289
O         17.76544        25.65971         1.18058
O         10.15945        26.92055         1.31086
O         19.68040        16.80118        -3.63260
H         18.93364        17.36475        -3.92978
O          5.99693        23.41923         1.03412
H          6.84238        23.76038         1.39977
O          3.69529        25.21619         0.66841
H          4.39469        24.65078         1.07771
O         13.03929        31.30978        -0.76953
H         12.46973        30.87840        -1.44126
O          0.67618        10.06059        -0.41932
H          0.65195         9.08243        -0.34726
O          5.03135        25.24334        -2.78961
H          4.12864        25.37214        -3.17517
O          2.41062        25.24677        -2.78097
H          1.66830        25.74219        -3.18809
O          7.42904         9.51184        -1.27439
H          6.61286         9.01992        -1.50566
O         12.25708        26.58321        -2.36825
H         12.08289        25.97679        -3.12221
O         12.58489        17.13999         0.93647
H         11.77098        17.53246         1.31950
H          1.46786         2.74424         3.32734
H         -0.65268         4.04090         3.49284
H         -0.71043         6.44680         2.94826
H         -0.53884         8.43903         3.04145
H         -0.71486        10.70164         2.15755
H         -0.89345        12.38331         1.16337
H         -0.93052        14.76921         0.67479
H         -1.03538        16.55298        -0.17008
H         -1.02926        18.94722        -0.42215
H         -0.97628        20.86230        -0.17372
H         -0.94641        23.29097        -0.20171
H         -0.94388        25.24724        -0.37961
H         -0.90949        27.63247        -0.85945
H         -0.86348        29.34439        -1.95660
H         -0.69461        31.66628        -2.83847
H         -0.48636        34.71174        -2.83775
H         -0.63951        36.81796        -1.46555
H          0.43064        38.45404        -0.03478
H          3.87609         2.65831         2.82193
H          2.52149        39.42351         0.91369
H          6.30016         2.58271         2.34198
H          4.95549        39.39589         1.00891
H          8.66532         2.49723         1.67234
H          7.38526        39.43269         0.99003
H         11.25321         2.46853         1.40548
H          9.82401        39.46650         1.07322
H         13.68747         2.45494         1.21274
H         12.23585        39.45758         1.45595
H         16.13578         2.44632         0.98389
H         14.63214        39.42846         2.03517
H         18.59818         2.44555         0.77888
H         16.99604        39.43528         2.73421
H         20.71247         3.64480         0.26673
H         21.88756         5.75501        -0.18136
H         21.91594         8.11430        -0.80695
H         21.86231         9.92648        -1.70213
H         21.89311        12.35142        -1.80997
H         21.89800        14.27822        -1.30753
H         21.92748        16.64114        -1.78898
H         21.90008        18.53881        -1.66063
H         21.93619        20.95325        -1.39160
H         21.83805        22.98642        -2.06814
H         21.69251        25.48101        -2.08070
H         21.53898        28.15271        -0.86132
H         21.62671        29.90742         0.85383
H         21.62920        31.70297         1.34898
H         21.59866        33.95327         2.24461
H         21.67206        35.77287         2.99698
H         21.53994        38.17755         3.43543
H         19.39538        39.39674         3.39206
