         232
 CSIRO Nanostructure Databank - Neutral Graphene Oxide Data Set
C        -11.13184         0.70713        -0.40800
C         -9.96133         1.47381        -0.18256
C         -8.77621         0.74338         0.38122
C         -7.46476         1.46098         0.21124
C         -6.29895         0.76073         0.22068
C         -5.02680         1.46071         0.47111
C         -3.74586         0.71547         0.65746
C         -2.46528         1.46603         0.59306
C         -1.22382         0.67054         0.62816
C          0.05715         1.45442         0.66122
C          1.27581         0.81491         0.09418
C          2.56337         1.49751         0.30463
C          3.73189         0.81151         0.01351
C          4.95453         1.59775        -0.19396
C          6.25814         0.89056        -0.43944
C          7.53997         1.60557        -0.16915
C          8.82473         0.97490        -0.71860
C         10.05062         1.53971        -0.03639
C         11.25679         0.73173        -0.02110
C         -9.91061         2.87618        -0.25103
C         -8.73651         3.61700         0.01958
C         -7.48007         2.92334         0.25110
C         -6.30307         3.63900         0.29975
C         -5.00267         2.93127         0.21882
C         -3.69012         3.62439         0.40356
C         -2.43588         2.84219         0.63130
C         -1.19391         3.59708         0.67634
C          0.03889         2.93269         0.65827
C          1.30376         3.61910         0.58459
C          2.53248         2.91697         0.52063
C          3.79382         3.63177         0.56045
C          4.96933         3.00626         0.20865
C          6.27773         3.74787        -0.00080
C          7.52643         2.90255         0.22641
C          8.79125         3.59221         0.72527
C         10.05322         2.82864         0.39427
C         -8.72476         5.04812        -0.08937
C         -7.58200         5.82212         0.00100
C         -6.30558         5.13497         0.50765
C         -4.93914         5.73299         0.21254
C         -3.71968         5.08174         0.83363
C         -2.41564         5.76424         0.48631
C         -1.23770         5.04563         0.60468
C          0.03635         5.77918         0.67359
C          1.30409         5.06189         0.53124
C          2.47526         5.79042         0.36915
C          3.75227         5.10975         0.67212
C          5.03859         5.85643         0.62469
C          6.33594         5.05603         0.80138
C          7.61172         5.82412         0.46203
C          8.78561         5.07532         0.41857
C         -7.66466         7.28240        -0.02514
C         -6.65190         8.02806        -0.57990
C         -4.75607         6.87240        -0.50872
C         -3.61783         7.74344        -0.37557
C         -2.40912         7.16248         0.09897
C         -1.22379         7.91375         0.03333
C          0.04351         7.29445         0.42490
C          1.29927         7.93092         0.00341
C          2.47916         7.20022         0.07627
C          3.73939         7.82694        -0.37891
C          5.04829         7.12768        -0.15815
C          6.35906         7.89521        -0.22450
C          7.57567         7.22217         0.25412
C         -6.26918         9.42336        -0.49681
C         -4.98170         9.87353        -0.65385
C         -3.70695         9.14862        -0.62548
C         -2.50765         9.88707        -0.63290
C         -1.23833         9.27857        -0.39358
C         -0.00793         9.98839        -0.46576
C          1.26290         9.34677        -0.33248
C          2.47279        10.05249        -0.43107
C          3.74422         9.34369        -0.60010
C          5.05647        10.01823        -0.44887
C          6.23466         9.36827        -0.30675
C        -11.15501        -0.68151        -0.29009
C         -9.98371        -1.45950        -0.04228
C         -8.72219        -0.73608         0.07602
C         -7.53921        -1.40907         0.08742
C         -6.25045        -0.68352        -0.18211
C         -4.99715        -1.45602         0.15491
C         -3.69632        -0.81581         0.61171
C         -2.46373        -1.36380        -0.08659
C         -1.24912        -0.71828         0.06810
C         -0.00708        -1.40252        -0.17473
C          1.26070        -0.65761        -0.20532
C          2.53086        -1.38481        -0.14524
C          3.76441        -0.63840        -0.11060
C          4.99101        -1.31198        -0.06632
C          6.25651        -0.56418        -0.08805
C          7.59065        -1.26462        -0.11328
C          8.75002        -0.59797        -0.89446
C         10.02935        -1.36190        -0.51210
C         11.23903        -0.61105        -0.22544
C         -9.97477        -2.86382        -0.09247
C         -8.77425        -3.61472         0.05179
C         -7.50362        -2.87485         0.40294
C         -6.24698        -3.57249        -0.04868
C         -5.01321        -2.80632        -0.08655
C         -3.79401        -3.49010        -0.59392
C         -2.51552        -2.70609        -0.69019
C         -1.19726        -3.47221        -0.84149
C          0.04997        -2.77236        -0.48345
C          1.28676        -3.46449        -0.56478
C          2.50585        -2.79439        -0.27925
C          3.76269        -3.51024        -0.33486
C          4.97012        -2.79756         0.26693
C          6.30406        -3.50657         0.03962
C          7.59420        -2.76685        -0.11472
C          8.74885        -3.49386        -0.83068
C         10.01659        -2.72318        -0.51235
C         -8.71336        -5.00366         0.04541
C         -7.45765        -5.70283         0.14656
C         -6.22507        -4.94629        -0.02057
C         -4.89259        -5.65193         0.09930
C         -3.78606        -4.97916        -0.70758
C         -2.47684        -5.70547        -0.81956
C         -1.18026        -4.95521        -0.76267
C          0.01146        -5.61976        -0.80395
C          1.27580        -4.84875        -1.19586
C          2.60823        -5.63207        -1.08814
C          3.82842        -4.79271        -0.84245
C          5.14394        -5.34977        -1.07194
C          6.30232        -4.86409        -0.54242
C          7.54772        -5.64689        -0.45560
C          8.73530        -4.95777        -0.44297
C         -7.38792        -7.07550         0.37492
C         -6.14263        -7.79684         0.33730
C         -4.96882        -7.14325        -0.00203
C         -3.75535        -7.97707        -0.35303
C         -2.46359        -7.16978        -0.52276
C         -1.18476        -7.60588         0.21068
C          0.02899        -7.09695        -0.59281
C          1.31971        -7.85986        -0.50753
C          2.63260        -7.17211        -0.84675
C          3.86606        -7.89395        -0.39365
C          5.11765        -7.49573        -0.78026
C          6.34304        -7.86460        -0.08727
C          7.46470        -7.05669        -0.07393
C         -6.07677        -9.21061         0.68757
C         -4.87684        -9.83267         0.87943
C         -3.62480        -9.18708         0.54795
C         -2.40099        -9.73709         0.83158
C         -1.14986        -9.08592         0.51625
C          0.05989        -9.69075         0.72149
C          1.32887        -9.07597         0.37093
C          2.48978        -9.62982         0.81828
C          3.80776        -9.29068         0.19206
C          5.03565        -9.62592         1.00422
C          6.22611        -9.02327         0.79396
O          8.88081         1.53355        -2.04837
H          8.71130         0.75602        -2.65792
O          0.05790         6.74998         1.78504
O         -4.45135        -5.42176         1.48739
H         -5.14202        -5.76636         2.09264
O         -4.06851        -8.55160        -1.65960
H         -3.67688        -7.94616        -2.33484
O          0.43399        -7.96245        -1.67991
O         -6.17497        -0.59218        -1.66364
H         -6.06188        -1.50067        -2.01998
O          5.50849         1.33508        -1.58735
O         -3.53181        -1.25262         1.99286
H         -4.05061        -0.62941         2.55293
O          5.23086        -6.53913        -1.79649
O          6.30043         4.11072        -1.40205
H          6.29271         3.27592        -1.92685
O          8.50423        -3.47038        -2.25053
H          8.55102        -2.50648        -2.53480
O         -6.47168         5.29800         1.96624
H         -5.61838         5.02464         2.39223
O          7.23439        -3.35474         1.17093
O          8.79407         3.52657         2.19364
H          7.94320         3.91500         2.51781
O          7.13204        -0.71589         1.12936
O         -4.17822        -4.19042        -1.84951
O          3.87968       -10.19324        -0.97800
H          3.15988        -9.93491        -1.59348
O         -1.86558        -2.85167        -1.98335
O          6.42736         4.69233         2.19673
H          5.60245         5.01554         2.64303
O          4.72960        -2.81907         1.70842
H          5.61992        -2.74018         2.12964
O          5.82568         7.09397        -1.37052
O         -9.00079         0.77369         1.84461
H         -9.93606         0.52259         2.00226
O         -2.35113        -6.71797        -1.89640
O         -7.42507        -2.91653         1.88077
H         -8.14726        -2.35141         2.22991
O         -3.80945         5.06492         2.29517
H         -3.43913         5.90544         2.63876
O          4.29114         5.85567         1.88091
O         -5.76707         7.28463        -1.37961
O          1.11852        -4.57223        -2.61530
H          1.30828        -5.41595        -3.08723
O          8.49854        -0.86218        -2.25168
O         -0.44529         0.81014         1.87659
O         -4.52813         1.15172         1.83968
O         -1.18942        -6.94266         1.44559
O          2.69338        -6.59869        -2.18008
O          1.16396         0.38340        -1.29536
O          3.66685         8.38022        -1.71987
O         -4.20969         3.38622        -0.94543
H         12.17434        -1.18568        -0.13609
H         12.20281         1.22817         0.24514
H         10.98424         3.25074         0.80821
H          9.74102         5.58619         0.21630
H          8.52374         7.78392         0.23311
H          7.15604         9.95561        -0.17157
H          5.05301        11.11923        -0.43471
H          2.46247        11.15186        -0.47446
H         -0.02898        11.05922        -0.71670
H         -2.54598        10.96977        -0.82712
H         -4.85657        10.96970        -0.63531
H         -7.05600        10.17225        -0.31399
H         -8.53593         7.76815         0.44154
H         -9.67847         5.54271        -0.33335
H        -10.82044         3.42552        -0.54116
H        -12.05910         1.22981        -0.68794
H        -12.10470        -1.21046        -0.46040
H        -10.91822        -3.39959        -0.28240
H         -9.63935        -5.59409        -0.03956
H         -8.31572        -7.64154         0.54876
H         -7.01534        -9.72865         0.93318
H         -4.84631       -10.84821         1.30288
H         -2.35794       -10.72097         1.32835
H          0.09698       -10.71425         1.12801
H          2.44091       -10.52700         1.45485
H          4.96290       -10.46376         1.71414
H          7.11245        -9.32786         1.37166
H          8.35579        -7.45219         0.44346
H          9.68748        -5.49040        -0.29526
H         10.94205        -3.27915        -0.29045
