         486
 CSIRO Nanostructure Databank - Neutral Graphene Oxide Data Set
C         38.23986        50.56069        -2.85870
C         37.40782        51.35796        -3.65058
C         38.39992        53.34416        -2.69858
C         37.48551        52.75093        -3.56370
C         40.11285        48.84228        -1.35952
C         40.01277        50.30752        -1.03325
C         39.16470        51.13801        -1.98420
C         40.26782        53.16699        -1.05036
C         39.25783        52.55465        -1.90096
C         40.20480        54.53038        -0.64309
C         42.51326        48.75326        -0.82484
C         41.25524        48.13484        -1.19776
C         42.52082        50.18927        -0.70363
C         41.37422        50.93475        -0.85858
C         42.46187        52.96102         0.02940
C         41.39357        52.37802        -0.64713
C         42.35419        54.33012         0.52123
C         41.16484        55.09225         0.16418
C         44.87448        45.86844        -0.45160
C         43.72351        46.58059        -0.66011
C         44.93410        48.68758        -0.25486
C         43.69041        48.01249        -0.59093
C         44.99440        50.08314        -0.15297
C         43.81722        50.94436        -0.52048
C         44.94643        52.90891         0.49552
C         43.64837        52.12141         0.45303
C         44.94066        54.31305         0.58296
C         43.69478        55.05206         0.88025
C         44.92572        57.18679         0.77236
C         43.78719        56.51880         1.02255
C         47.42318        44.38042        -0.24309
C         47.35462        45.74701        -0.03158
C         46.12898        46.51326        -0.16966
C         47.40580        48.64814         0.03685
C         46.12817        47.91332        -0.06130
C         47.39438        50.08040         0.35519
C         46.20361        50.76838         0.22935
C         47.39277        52.92758         0.59040
C         46.17109        52.21742         0.43388
C         47.37313        54.34260         0.59854
C         46.15714        55.02945         0.49486
C         47.43555        57.21682         0.29885
C         46.10962        56.49842         0.13830
C         47.48080        58.60686         0.00380
C         49.87262        44.29575         0.03425
C         48.63693        43.65957        -0.14117
C         49.89633        45.71929         0.21140
C         48.59447        46.42694         0.51457
C         49.93853        48.60214         0.47400
C         48.67478        47.88767         0.14601
C         49.91804        50.01565         0.70367
C         48.60737        50.72587         0.98682
C         49.84361        52.91029         0.86603
C         48.65182        52.22215         0.74469
C         49.89086        54.35724         0.83093
C         48.59934        55.10748         1.04028
C         49.87586        57.22508         0.53309
C         48.62271        56.53707         0.55825
C         49.90049        58.63984         0.30432
C         48.66705        59.30345         0.04123
C         52.47503        41.54575        -0.37898
C         51.21665        42.20835        -0.24024
C         52.36423        44.32775         0.12132
C         51.13584        43.57366         0.00753
C         52.34475        45.70650         0.10624
C         51.09755        46.43030         0.19876
C         52.39126        48.58357         0.48533
C         51.12558        47.88359         0.37848
C         52.37001        50.02065         0.73452
C         51.10860        50.70513         0.85526
C         52.36689        52.88180         1.04044
C         51.07782        52.15017         1.30695
C         52.40178        54.35224         0.69408
C         51.07852        55.06580         0.83068
C         52.33799        57.21072         0.68887
C         51.09547        56.50751         0.72305
C         52.36186        58.62349         0.45467
C         51.14065        59.34376         0.32714
C         52.35657        61.47322         0.35790
C         51.18836        60.79351         0.38358
C         54.97373        40.02281         0.20307
C         54.97677        41.45342        -0.28609
C         53.65773        42.16949        -0.11154
C         54.91302        44.36528         0.13835
C         53.64511        43.58122         0.42328
C         54.89782        45.73738         0.05067
C         53.60125        46.48435        -0.19375
C         54.86402        48.60365         0.28671
C         53.58568        47.88400         0.36100
C         54.83538        50.08093         0.54977
C         53.56244        50.74343         0.87183
C         54.85515        52.89850         1.28032
C         53.54362        52.18521         1.01472
C         54.86235        54.39812         1.13121
C         53.55066        55.09886         1.38849
C         54.76566        57.25237         1.00864
C         53.57319        56.54397         0.95265
C         54.78773        58.66053         0.79825
C         53.61030        59.32483         0.47555
C         54.90367        61.51588         0.40351
C         53.64361        60.76466         0.02389
C         54.96432        62.89441         0.11462
C         57.40883        40.00184         0.40965
C         56.13826        39.34330         0.42109
C         57.37258        41.47405         0.55652
C         56.14984        42.23040         0.27123
C         57.41415        44.35239         0.28552
C         56.15596        43.61644         0.27886
C         57.38838        45.76044        -0.02533
C         56.15069        46.50330         0.08285
C         57.25923        48.63205         1.12519
C         56.15601        47.86580         0.35928
C         57.31288        50.11203         0.77805
C         56.12228        50.78571         0.73219
C         57.34068        53.01431         0.66213
C         56.04915        52.24811         0.62942
C         57.31790        54.43314         1.05406
C         56.04576        55.09770         1.18411
C         57.30143        57.29333         1.24347
C         56.00547        56.57002         1.54436
C         57.30209        58.68653         1.14946
C         55.99168        59.42102         1.31362
C         57.28279        61.57148         0.96302
C         56.05487        60.85944         0.85570
C         57.31276        62.97288         0.73784
C         56.12531        63.61788         0.32309
C         60.08964        37.37355         0.96639
C         58.80284        37.98571         0.84463
C         59.88508        40.04827        -0.00158
C         58.65903        39.31060         0.44595
C         59.90825        41.53568         0.16685
C         58.67929        42.25797         0.60504
C         59.93456        44.45374         0.35395
C         58.63079        43.69601         0.34143
C         59.84846        45.85653        -0.18583
C         58.57246        46.38916        -0.48390
C         59.84842        48.70413         0.62121
C         58.67419        48.03003         1.26008
C         59.82378        50.11864         0.65321
C         58.57283        50.83395         0.74734
C         59.80239        52.97366         0.85836
C         58.58527        52.23823         0.73615
C         59.76126        54.37078         1.10165
C         58.53742        55.11265         1.18681
C         59.73884        57.29675         1.19299
C         58.53427        56.57652         1.24541
C         59.75432        58.72336         1.21660
C         58.52148        59.42948         1.18010
C         59.74759        61.57156         1.32270
C         58.52782        60.86563         1.18846
C         59.76300        63.02319         1.22466
C         58.55460        63.70474         0.90646
C         59.76214        65.82046         0.88492
C         58.58678        65.10977         0.75839
C         62.61618        35.86288         0.53222
C         62.60168        37.34102         0.80889
C         61.24393        37.96029         0.52754
C         62.43640        40.13588         0.31464
C         61.21701        39.28575        -0.18598
C         62.35056        41.54291        -0.22656
C         61.15371        42.29503         0.12007
C         62.35655        44.48007        -0.28792
C         61.05334        43.70940        -0.38051
C         62.32289        45.90038        -0.14331
C         61.05781        46.60597        -0.07275
C         62.28173        48.73926         0.19453
C         61.04616        48.01321         0.23453
C         62.28412        50.14880         0.38809
C         61.05203        50.85500         0.56170
C         62.29293        52.97013         0.78949
C         61.04791        52.26620         0.73645
C         62.29724        54.38774         0.96108
C         61.03594        55.07148         1.26972
C         62.23000        57.32291         0.73561
C         61.02754        56.58180         1.27928
C         62.25550        58.68726         1.41402
C         60.97884        59.44866         1.40413
C         62.22569        61.58340         1.81084
C         60.97176        60.84124         1.50655
C         62.21909        63.08354         1.76476
C         60.96486        63.77389         1.37726
C         62.22129        65.95910         1.26288
C         60.98371        65.17366         1.19494
C         62.20273        67.32578         1.11280
C         65.00516        35.90871        -0.01599
C         63.74731        35.21493         0.18617
C         64.99739        37.32882        -0.07701
C         63.77699        38.05816         0.16476
C         64.90685        40.17460        -0.39829
C         63.73509        39.43296        -0.02355
C         64.88292        41.59217        -0.50686
C         63.59987        42.31883        -0.52961
C         64.81589        44.48036        -0.28121
C         63.57370        43.79331        -0.38607
C         64.81459        45.92792        -0.20611
C         63.54699        46.63056        -0.13034
C         64.74789        48.79839        -0.02093
C         63.52614        48.05032         0.00702
C         64.77567        50.17479         0.21440
C         63.52652        50.86474         0.43757
C         64.77738        52.94967         1.07122
C         63.50957        52.24519         0.68908
C         64.74420        54.40078         0.65914
C         63.49087        55.14357         0.87807
C         64.76624        57.25613         0.89525
C         63.52805        56.55243         0.87574
C         64.72187        58.75933         0.71178
C         63.56022        59.40320         1.45217
C         64.77727        61.69538         1.30990
C         63.58024        60.89286         1.69354
C         64.79363        63.07364         1.32658
C         63.54291        63.81141         1.64487
C         64.81926        66.01182         1.01290
C         63.54058        65.29553         1.43390
C         64.61287        67.45459         0.76048
C         63.40411        68.07129         0.93520
C         67.47185        33.08716        -0.47534
C         66.29097        33.77165        -0.20900
C         67.43586        35.93061        -0.38787
C         66.23097        35.19686        -0.16794
C         67.40077        37.30768        -0.59453
C         66.18663        38.03391        -0.43239
C         67.32795        40.18180        -0.89263
C         66.16434        39.47451        -0.56448
C         67.32335        41.68006        -1.11690
C         66.06195        42.35094        -0.62867
C         67.30037        44.44420        -0.16744
C         66.03011        43.74799        -0.41830
C         67.30288        45.97017        -0.12045
C         66.01193        46.64492        -0.31738
C         67.30270        48.88207        -0.49861
C         65.98736        48.10867        -0.43434
C         67.29342        50.25047         0.04923
C         66.04307        50.90408         0.27884
C         67.26776        52.97756         0.84242
C         66.04397        52.26241         0.64027
C         67.25058        54.38106         1.06536
C         66.05207        55.15102         0.74686
C         67.26320        57.31646         1.05027
C         66.00268        56.60620         0.93670
C         67.28005        58.74142         1.01971
C         65.97926        59.47824         1.22486
C         67.27812        61.64392         1.14753
C         65.99411        60.94926         0.78543
C         67.25118        63.08295         0.95308
C         66.01526        63.81994         0.93913
C         67.20677        65.76990        -0.00691
C         66.03588        65.21236         0.63302
C         67.28583        67.03591        -0.74785
C         66.46372        68.16839        -0.52386
C         67.37302        69.38057        -2.41006
C         66.49874        69.30850        -1.32666
C         70.00157        31.62982        -0.84435
C         69.95572        33.04936        -0.72727
C         68.71147        33.74116        -0.57521
C         69.96589        35.93930        -0.71171
C         68.74657        35.20468        -0.21535
C         69.92549        37.32673        -0.88778
C         68.59414        37.95861        -1.25880
C         69.89010        40.25803        -1.03644
C         68.57135        39.48331        -1.21020
C         69.82570        41.68074        -0.64034
C         68.59854        42.36482        -0.64706
C         69.78139        44.48431        -0.23115
C         68.57810        43.74843        -0.37687
C         69.76347        45.94489        -0.29587
C         68.59186        46.65714        -0.34191
C         69.82844        48.81450        -0.03696
C         68.63619        48.14301        -0.69445
C         69.78732        50.17088         0.35689
C         68.51239        50.90051         0.40903
C         69.72865        52.92158         1.38309
C         68.49449        52.23935         0.82744
C         69.72098        54.41486         0.99462
C         68.46935        55.12670         1.53198
C         69.71064        57.30546         1.29413
C         68.47518        56.60625         1.18931
C         69.71549        58.73895         1.26706
C         68.47808        59.45108         1.14872
C         69.73137        61.59177         1.20275
C         68.46720        60.91237         1.18898
C         69.77033        63.10000         1.05824
C         68.45809        63.73387         0.65665
C         69.54416        65.37668        -0.79859
C         68.40866        64.99032         0.00116
C         69.41026        66.32404        -1.79164
C         68.29269        67.21826        -1.75869
C         69.32115        68.49390        -3.68016
C         68.30410        68.35905        -2.62397
C         69.27024        69.55166        -4.61379
C         72.41753        31.66218        -0.86385
C         71.20206        30.95079        -0.91288
C         72.40813        33.04409        -0.77796
C         71.19587        33.77605        -0.72627
C         72.39375        35.97637        -0.88342
C         71.19743        35.22581        -0.74331
C         72.36832        37.35474        -0.89430
C         71.14137        38.07549        -0.90400
C         72.26457        40.23758        -0.38253
C         71.12669        39.50844        -0.79953
C         72.23762        41.60422        -0.18180
C         71.02750        42.36336        -0.28919
C         72.21896        44.54000         0.11205
C         71.00546        43.78043        -0.13428
C         72.26029        45.87575        -0.04470
C         71.08047        46.66544        -0.55270
C         72.21762        48.74953         0.37180
C         71.03975        48.09424        -0.02143
C         72.20235        50.09745         0.69910
C         71.00340        50.83357         0.69175
C         72.17243        53.00427         1.05228
C         71.02305        52.25985         0.98083
C         72.16174        54.41143         1.33646
C         70.99844        55.14366         1.35639
C         72.12884        57.33889         1.65569
C         70.95535        56.59211         1.45653
C         72.12584        58.73137         1.63554
C         70.94075        59.45782         1.41969
C         72.19098        61.64854         1.20127
C         70.93267        60.90513         1.30597
C         72.22364        62.87112         0.63174
C         70.93965        63.45478         0.16374
C         72.01932        65.38055        -1.22364
C         70.83245        64.62915        -0.73442
C         71.84970        66.26447        -2.21556
C         70.48015        66.37685        -2.86532
C         71.32354        67.68591        -4.81364
C         70.37240        67.56013        -3.79184
C         71.25922        68.73949        -5.72414
C         70.22637        69.67488        -5.61818
O         63.07717        58.67263         2.61619
O         62.90414        63.59883         2.94919
O         62.74637        41.77160        -1.63775
O         65.69344        68.30780         0.62255
O         58.04721        41.84033         1.84216
O         55.84264        59.35747         2.74369
O         61.19012        55.87188         2.52494
O         54.83241        49.56174        -0.86661
O         66.48443        48.69830        -1.71101
O         56.55171        52.81287        -0.59965
O         42.86674        54.44615         1.91562
O         62.97226        61.15766         2.98706
O         64.44210        65.85348         2.44644
O         70.70129        63.24651        -1.27670
O         58.84307        47.15023         2.10793
O         69.28272        40.03280        -2.38641
O         65.43446        54.72075        -0.56268
O         67.28825        45.16446         1.11891
O         48.24964        48.27080        -1.19372
O         59.61059        40.86251        -1.19284
O         55.20190        41.37399        -1.73948
H         56.05235        40.90703        -1.88581
O         55.82563        56.65353         3.00125
H         55.82203        57.64984         3.18148
O         39.33401        50.39883         0.26845
H         39.90513        49.95101         0.92801
O         65.97157        61.02128        -0.68493
H         66.17173        61.94749        -0.94058
O         68.93123        48.21488        -2.12710
H         68.05857        48.25567        -2.58958
O         53.55953        46.69315        -1.65377
H         54.11690        47.47569        -1.86079
O         60.34457        44.55997         1.74566
H         59.81390        45.27814         2.16171
O         45.82868        56.51978        -1.30631
H         46.58669        56.09754        -1.76313
O         64.79929        52.98038         2.54340
H         64.71601        52.05831         2.86652
O         68.42028        37.60471        -2.66938
H         68.91606        38.27909        -3.18907
O         69.67424        52.73931         2.82166
H         69.10886        53.45374         3.20597
O         69.62762        54.43749        -0.45145
H         69.64251        55.37177        -0.74768
O         48.44888        46.41872         1.97724
H         48.43056        45.48175         2.26603
O         62.79284        37.51252         2.27159
H         63.64555        37.08693         2.50692
O         64.46817        58.91536        -0.71126
H         65.04365        59.62907        -1.08060
O         53.68500        60.71403        -1.45256
H         52.89596        60.21081        -1.74667
O         48.43340        50.57949         2.45327
H         47.55964        50.96253         2.68559
O         70.31003        65.19127        -3.69576
H         70.42233        64.40072        -3.12228
O         48.44876        55.21029         2.50740
H         48.90699        54.44251         2.91129
O         44.14114        51.56236        -1.80496
H         44.32427        50.84459        -2.44681
O         52.74935        54.41637        -0.72611
H         52.07163        53.92232        -1.23312
O         71.25678        46.76148        -1.99555
H         70.50149        47.30402        -2.33804
O         55.05908        52.68276         2.71742
H         54.37499        53.22127         3.18312
O         60.67620        43.64673        -1.78569
H         61.28277        42.98827        -2.20490
O         53.36875        55.06290         2.83034
H         54.08314        55.63938         3.20773
O         65.82574        59.48379         2.66850
H         66.55012        60.01659         3.05816
O         68.93386        35.19873         1.26334
H         69.72044        34.64189         1.45055
O         61.39828        39.03031        -1.58886
H         61.02389        39.80794        -2.06603
O         53.63635        43.42135         1.89296
H         53.60891        44.31772         2.29046
O         67.29910        41.88538        -2.57237
H         68.04225        41.34256        -2.93550
O         70.09042        63.67585         2.36447
H         69.34504        63.48317         2.97134
O         50.94294        52.08419         2.77425
H         50.16386        51.50288         2.95664
O         43.37109        51.61303         1.78053
H         43.17232        52.39817         2.34205
O         56.73730        48.58150         2.48880
H         57.20206        47.83174         2.93338
O         62.33820        40.26954         1.74969
H         62.47667        39.37789         2.15801
O         68.49383        55.09318         3.00304
H         67.65372        55.48270         3.32699
O         61.99480        57.51909        -0.68182
H         62.80508        57.94807        -1.05226
O         58.44578        47.52142        -1.23911
H         59.32062        47.78469        -1.59087
H         38.15314        49.46771        -2.92968
H         36.68797        50.88706        -4.33409
H         38.46873        54.44022        -2.65728
H         36.83022        53.37875        -4.18316
H         39.18764        48.30501        -1.61489
H         39.32773        55.13259        -0.91937
H         41.23226        47.05049        -1.37779
H         41.05475        56.12161         0.53083
H         44.83180        44.77248        -0.51155
H         42.79968        46.03005        -0.88312
H         44.97713        58.26972         0.95843
H         42.92156        57.03739         1.46063
H         46.52555        43.81677        -0.53459
H         46.54900        59.13209        -0.24854
H         48.59737        42.57247        -0.29274
H         48.66119        60.38018        -0.17550
H         52.46765        40.50326        -0.72943
H         50.30570        41.61833        -0.40964
H         52.35018        62.56802         0.46186
H         50.24964        61.34419         0.54105
H         54.02112        39.47403         0.22540
H         54.07759        63.40996        -0.27960
H         56.10349        38.25728         0.59797
H         56.11655        64.69515         0.11305
H         60.13353        36.39985         1.47671
H         57.92874        37.42458         1.20354
H         59.72752        66.90719         0.73997
H         57.66748        65.66394         0.53110
H         61.68699        35.29380         0.67882
H         61.25882        67.88335         1.07886
H         63.71198        34.12546         0.04715
H         63.35223        69.16422         0.85393
H         67.41490        31.99619        -0.59609
H         65.36935        33.18431        -0.10335
H         67.36634        70.28270        -3.03383
H         65.84264        70.15268        -1.07991
H         69.06609        31.05539        -0.87129
H         68.46131        70.29299        -4.57203
H         73.37233        31.12026        -0.90413
H         71.21140        29.85532        -0.99642
H         73.36944        33.57425        -0.75422
H         73.36509        35.46862        -0.94631
H         73.31940        37.89973        -0.95925
H         73.21135        39.70635        -0.21514
H         73.17119        42.10757         0.09966
H         73.13181        44.00788         0.41447
H         73.22222        46.38732         0.09465
H         73.17911        48.22163         0.38804
H         73.14610        50.58492         0.97703
H         73.15315        52.54197         0.86966
H         73.13559        54.90071         1.48305
H         73.08515        56.82276         1.81386
H         73.07804        59.25644         1.78675
H         73.12765        61.17165         1.52107
H         73.17439        63.39521         0.45647
H         73.00297        65.20601        -0.76258
H         72.69405        66.84893        -2.61086
H         72.11932        66.93287        -4.90174
H         72.00858        68.82829        -6.52261
H         70.16029        70.50648        -6.33349
