         244
 CSIRO Nanostructure Databank - Neutral Graphene Oxide Data Set
C          1.16117         2.07656         0.11747
C          1.10817         3.43756         0.31103
C          2.37926         1.35648         0.10191
C          2.30979         4.19146         0.67158
C          1.20242         6.44893         0.71003
C          1.24423         7.85373         0.85018
C          2.34363         5.67189         0.67400
C          2.46908         8.56696         0.85777
C          1.25359        10.78223         0.79210
C          1.17789        12.07283         0.37668
C          2.48810        10.03101         0.73993
C          2.34999        12.73683        -0.19932
C          1.15538        15.09038        -0.23024
C          1.25110        16.45447        -0.13439
C          2.33612        14.27448        -0.51682
C          2.47829        17.13073        -0.38957
C          2.56711        18.56474        -0.35432
C          3.61873         2.01116         0.20195
C          3.64091         3.44545         0.57042
C          4.84368         1.34469         0.04159
C          4.87106         4.21972         0.27033
C          3.67676         6.32656         0.94487
C          3.66129         7.82697         0.74050
C          4.84231         5.60723         0.28782
C          4.94770         8.48214         0.71166
C          3.67295        10.72560         0.47292
C          3.66261        12.09252        -0.00272
C          4.97209        10.04988         0.58407
C          4.83655        12.77044        -0.33401
C          3.64053        14.94588        -0.56183
C          3.66847        16.36821        -0.62563
C          4.84574        14.20038        -0.56742
C          4.88712        17.03437        -0.92851
C          3.68590        19.22226        -0.75809
C          4.87157        18.49336        -1.32562
C          6.08605         2.04154         0.09756
C          6.09213         3.48076         0.06911
C          7.31017         1.34385         0.15758
C          7.33939         4.15772         0.04023
C          6.03237         6.34761        -0.15594
C          6.04611         7.86527        -0.13616
C          7.36340         5.61412        -0.19767
C          7.39532         8.51270         0.08859
C          6.15906        10.62579        -0.00038
C          6.12915        12.00993        -0.56738
C          7.39875         9.92232         0.04348
C          7.35132        12.75381        -0.06580
C          6.08216        14.91861        -0.65481
C          6.08662        16.30525        -0.91889
C          7.33824        14.24418        -0.25850
C          7.37289        17.02853        -1.10121
C          6.15344        19.18756        -0.96687
C          7.38352        18.52094        -0.97909
C          8.54210         2.02645         0.26804
C          8.53884         3.45251         0.18696
C          9.78904         1.32856         0.30446
C          9.79121         4.20845         0.41005
C          8.60898         6.37949        -0.01938
C          8.62012         7.77461         0.05871
C          9.88583         5.60234        -0.17445
C          9.88999         8.49409         0.12252
C          8.65692        10.63724        -0.00048
C          8.65146        12.04715        -0.04242
C          9.89352         9.92146         0.11518
C          9.85416        12.78616         0.02759
C          8.63456        14.90191        -0.38529
C          8.65302        16.30624        -0.82622
C          9.83253        14.22433        -0.13662
C          9.82031        17.13484        -0.34150
C          8.60538        19.20338        -0.92470
C          9.91783        18.47749        -1.08914
C         11.02216         1.99217         0.35388
C         11.06144         3.44743         0.62338
C         12.21231         1.32492         0.00181
C         12.40726         4.15824         0.67188
C         11.14432         6.34788         0.20158
C         11.12230         7.78906         0.18284
C         12.33672         5.65382         0.33620
C         12.35350         8.51473         0.29630
C         11.11753        10.64786         0.23698
C         11.10044        12.09302         0.19263
C         12.35449         9.94145         0.34585
C         12.30405        12.82173         0.28776
C         11.08709        14.94845        -0.14356
C         11.11199        16.35659        -0.31182
C         12.30616        14.23608         0.09232
C         12.30857        17.08420        -0.26503
C         11.12279        19.23195        -0.60044
C         12.30298        18.54655        -0.32437
C         13.47520         1.94437        -0.17120
C         13.52434         3.48687        -0.13882
C         14.49890         1.14570        -0.70397
C         14.81689         4.20160         0.25170
C         13.58325         6.37412         0.33653
C         13.59102         7.80207         0.35487
C         14.81254         5.65664         0.31380
C         14.82776         8.51986         0.45976
C         13.60020        10.64355         0.51468
C         13.55636        12.13229         0.79554
C         14.80887         9.96035         0.55974
C         14.81711        12.85964         0.38237
C         13.53707        14.95730         0.08937
C         13.54576        16.38690        -0.08654
C         14.76767        14.22551         0.18325
C         14.74274        17.13204        -0.00523
C         13.52327        19.24722        -0.10992
C         14.75064        18.56130         0.04228
C         15.88883         1.54856        -0.60397
C         16.01860         3.55346         0.37200
C         16.93725         1.50571        -1.46279
C         17.28884         4.19128         0.16655
C         16.02962         6.37767         0.45297
C         16.04244         7.78451         0.51676
C         17.31705         5.62726         0.49499
C         17.37152         8.49881         0.70121
C         16.10616        10.71380         0.84570
C         16.08479        12.15375         0.37352
C         17.34663         9.97656         0.38734
C         17.27479        12.79934         0.14344
C         15.99966        14.98676        -0.23690
C         15.98913        16.39201         0.37217
C         17.31875        14.30727         0.18539
C         17.28856        17.13442         0.17133
C         15.98255        19.23887         0.27295
C         17.23573        18.56406         0.34116
C         18.23298         2.29964        -1.35003
C         18.34313         3.53642        -0.43824
C         19.47467         1.44252        -1.19402
C         19.62791         4.22162        -0.54889
C         18.59147         6.35039         0.24023
C         18.46927         7.80793        -0.12721
C         19.74970         5.60330        -0.27895
C         19.80487         8.50123        -0.07557
C         18.52928        10.62373         0.18484
C         18.58782        12.11046         0.45716
C         19.80347         9.91011         0.01542
C         19.77569        12.80629        -0.14726
C         18.51159        15.02359        -0.47160
C         18.50415        16.46529         0.04551
C         19.80431        14.25399        -0.26216
C         19.72607        17.15352         0.34423
C         18.44744        19.25836         0.52469
C         19.67547        18.56303         0.61093
C         20.67904         2.04093        -1.07639
C         20.78694         3.49043        -0.92855
C         22.00588         4.17463        -1.06834
C         20.96250         6.30198        -0.47781
C         20.99807         7.76470        -0.26189
C         22.08859         5.55641        -0.88078
C         22.21297         8.47938        -0.27007
C         21.03022        10.60372        -0.06521
C         21.10564        12.10467        -0.24673
C         22.21950         9.86914        -0.18544
C         22.06965        12.79918         0.71447
C         21.05424        14.99844         0.22400
C         20.96216        16.45650         0.51729
C         22.05779        14.13402         0.88906
C         22.10090        17.15780         0.90790
C         20.87503        19.24639         0.96498
C         22.05847        18.55308         1.11461
O         18.22289         5.98139         1.62022
O          7.14173        13.59486         1.09164
O          3.02898         3.67806         1.88698
O         16.09866         2.19239         0.63559
O         20.85933        14.74194        -1.21539
O          2.14501        13.25330        -1.55313
O          8.19509        16.50826        -2.22040
O         10.26564         3.94412         1.76925
O          5.27623         9.32118         1.82816
O          6.59304         5.90317        -1.44299
O         15.80905        16.26624         1.82836
H         15.98170        17.15033         2.21725
O          9.52138        17.48028         1.04409
H          9.52132        16.65368         1.57179
O          5.63673         8.27102        -1.49140
H          6.06616         7.62600        -2.10372
O         10.00432         5.33792        -1.61934
H         10.01199         6.20169        -2.08337
O         16.26022        10.80678         2.30634
H         16.56365         9.91479         2.61284
O         17.69307         8.46872         2.12152
H         17.83937         7.51617         2.36447
O         18.33688         2.89851        -2.69167
H         19.23229         3.29112        -2.77634
O         12.84757         4.09060         2.04950
H         12.05838         4.26667         2.61039
O          3.91120         6.18962         2.39955
H          3.65730         5.25857         2.62883
O         18.75373        12.18237         1.92358
H         17.95736        11.73084         2.30904
O         13.28303         3.85590        -1.52490
H         13.98345         3.45300        -2.07970
O          4.74092        18.53721        -2.79901
H          5.47410        18.00364        -3.17373
O         13.48124        12.24317         2.26350
H         13.50002        13.19736         2.48874
O         18.38206        15.09628        -1.91398
H         19.28443        15.28381        -2.26397
O          6.30628        11.92479        -2.01891
H          5.61438        11.32728        -2.37387
O         10.15897        18.25469        -2.50691
H          9.44151        17.65452        -2.83190
O         21.67426        12.26175        -1.58247
H         21.62827        13.22776        -1.79406
O         15.83037        15.09937        -1.66179
H         16.68470        15.35794        -2.08118
O         18.00593         7.85581        -1.50898
H         18.77820         7.73215        -2.09937
O         17.56589        14.56403         1.59339
H         16.86990        14.11916         2.12162
H          0.23027         1.53164        -0.09637
H          0.15923         3.97390         0.17211
H          2.36098         0.27615        -0.10054
H          0.21462         5.97081         0.63106
H          0.28780         8.38942         0.89948
H          0.34509        10.29648         1.17286
H          0.21399        12.59985         0.39150
H          0.17718        14.59927        -0.13764
H          0.35218        17.05208         0.07702
H          1.69017        19.12985        -0.00315
H          4.84868         0.25306        -0.09558
H          3.72073        20.32149        -0.73253
H          7.30011         0.24399         0.16965
H          6.14142        20.28126        -0.84158
H          9.78141         0.23727         0.16096
H          8.59655        20.30383        -0.89210
H         12.14766         0.24222        -0.19224
H         11.12864        20.33238        -0.64193
H         14.24542         0.12779        -1.04384
H         13.51361        20.34704        -0.10656
H         16.80007         1.02172        -2.44112
H         15.97224        20.33544         0.35677
H         19.39757         0.34992        -1.29159
H         18.43459        20.34923         0.66555
H         21.60594         1.44753        -1.06347
H         22.90892         3.61268        -1.34743
H         23.05653         6.05343        -1.03153
H         23.16747         7.94662        -0.37833
H         23.17524        10.40700        -0.25761
H         22.81654        12.18320         1.23884
H         22.75929        14.60261         1.59579
H         23.05450        16.62732         1.03742
H         20.83863        20.33075         1.14296
H         22.97787        19.08214         1.40113
