         234
 CSIRO Nanostructure Databank - Neutral Graphene Oxide Data Set
C          1.34067         1.65458        -0.94215
C          1.27619         2.63070         0.05653
C          2.52338         1.48932        -1.64633
C          2.35474         3.51506         0.25367
C          1.11447         6.48431         1.41443
C          1.11955         7.86444         1.34009
C          2.27641         5.75544         1.10332
C          2.32046         8.56256         1.05668
C          1.13095        10.76506         0.87699
C          1.16202        12.14135         0.66865
C          2.30453         9.99922         0.99040
C          2.38494        12.83358         0.37011
C          1.24269        15.09616         0.29051
C          1.24549        16.42318         0.02919
C          2.39862        14.25267         0.02496
C          2.38420        17.08016        -0.70839
C          2.55057        18.54504        -0.40858
C          3.64893         2.31454        -1.37179
C          3.54443         3.43398        -0.47880
C          4.91858         1.89135        -1.82917
C          4.70688         4.41642        -0.46391
C          3.51001         6.38060         0.77924
C          3.52958         7.81697         0.83842
C          4.70877         5.61356         0.47639
C          4.77169         8.53939         0.66085
C          3.60202        10.74167         1.11922
C          3.57478        12.09895         0.44403
C          4.78984         9.90897         0.70707
C          4.80830        12.65085        -0.11195
C          3.58378        14.88588        -0.37872
C          3.67197        16.30456        -0.56116
C          4.80798        14.09943        -0.56884
C          4.90334        16.94678        -0.73410
C          3.75374        19.14588        -0.48580
C          4.97740        18.39412        -0.73649
C          6.09650         2.43992        -1.25801
C          6.02899         3.66764        -0.52841
C          7.32055         1.74431        -1.36196
C          7.22916         4.26005        -0.07625
C          5.96027         6.27390         0.60361
C          6.03185         7.76133         0.32420
C          7.18996         5.59219         0.44386
C          7.32325         8.40974         0.80426
C          6.07366        10.64061         0.76434
C          6.13062        12.06344         0.28665
C          7.33110         9.88896         0.93272
C          7.40217        12.67537        -0.24022
C          6.09831        14.79159        -0.71005
C          6.13815        16.19537        -0.83772
C          7.27533        14.02862        -0.89697
C          7.38929        16.86484        -1.00681
C          6.19390        19.03209        -0.86973
C          7.42351        18.30152        -1.01819
C          8.51720         2.28635        -0.84600
C          8.48564         3.59667        -0.27347
C          9.73972         1.56652        -0.92268
C          9.73216         4.26086         0.01381
C          8.45686         6.20986         0.99816
C          8.48457         7.72699         0.94544
C          9.73025         5.59413         0.47944
C          9.73776         8.40524         1.51715
C          8.62477        10.53963         0.55862
C          8.69124        11.84664        -0.17626
C          9.80216         9.92982         1.27620
C         10.01366        12.56068        -0.13233
C          8.39422        14.72095        -1.37109
C          8.58945        16.11845        -1.22257
C         10.23286        13.66144        -0.88228
C          9.90025        16.76289        -1.14296
C          8.65586        18.93301        -1.16072
C          9.88242        18.20413        -1.14345
C         10.95983         2.17427        -0.56674
C         10.94799         3.54570        -0.19010
C         12.19530         1.43131        -0.58827
C         12.25581         4.20164         0.16555
C         11.01117         6.30304         0.69131
C         11.07876         7.73451         1.13615
C         12.19873         5.70959        -0.00127
C         12.32731         8.54524         0.87126
C         11.08605        10.70134         1.30850
C         10.97348        12.22639         0.98635
C         12.37192         9.94920         1.12739
C         12.34908        12.85736         0.81259
C         11.33728        14.63555        -0.76526
C         11.16196        16.11201        -0.89498
C         12.49200        14.10735         0.00737
C         12.32445        16.88335        -0.59311
C         11.08959        18.93510        -1.08335
C         12.31379        18.31060        -0.80703
C         13.44010         2.06722        -0.51405
C         13.41806         3.55335        -0.54589
C         14.67983         1.40074        -0.51774
C         14.71554         4.31954        -0.59426
C         13.46992         6.49640        -0.07245
C         13.50501         7.89073         0.44194
C         14.74324         5.76464        -0.24862
C         14.75832         8.57899         0.39265
C         13.60446        10.64484         1.01911
C         13.63383        12.12598         1.06223
C         14.80855         9.97906         0.69031
C         14.88479        12.86750         0.76248
C         13.61818        14.98545         0.32766
C         13.53844        16.31442        -0.04581
C         14.85684        14.28762         0.62943
C         14.71523        17.17669         0.42341
C         13.50816        19.08697        -0.70790
C         14.75013        18.55472        -0.32611
C         15.91572         2.10993        -0.46659
C         15.93717         3.51461        -0.51268
C         17.15999         1.38205        -0.25815
C         17.21069         4.22666        -0.34565
C         15.93421         6.47278        -0.23617
C         15.94634         7.88546        -0.00180
C         17.22539         5.71935        -0.28833
C         17.17922         8.65454        -0.19845
C         16.07115        10.71257         0.58070
C         16.09702        12.17126         0.70553
C         17.22798        10.06442         0.20879
C         17.32670        12.89764         0.67027
C         16.07128        14.99554         0.54675
C         16.04618        16.42800         0.06907
C         17.29517        14.31863         0.67938
C         17.26864        17.21221         0.48191
C         15.97000        19.17616        -0.52673
C         17.22565        18.71248         0.07369
C         18.38830         2.00102        -0.26534
C         18.45394         3.44110        -0.61685
C         19.64410         1.33149        -0.02855
C         19.76737         4.16314        -0.59695
C         18.50004         6.43802        -0.61610
C         18.51619         7.92373        -0.42634
C         19.79175         5.67661        -0.61106
C         19.77960         8.55826        -0.07162
C         18.53193        10.79820        -0.06654
C         18.57619        12.20537         0.49022
C         19.74152         9.98965         0.43813
C         19.79477        12.86226         0.47352
C         18.55206        15.08245         0.78025
C         18.56429        16.52672         0.46863
C         19.87038        14.31971         0.71973
C         19.75330        17.21789         0.28801
C         18.51267        19.30989        -0.25570
C         19.71302        18.63805        -0.05743
C         20.83492         2.00587         0.06854
C         20.94468         3.43563        -0.08157
C         22.05600         4.16242         0.29344
C         21.01175         6.36911        -0.12370
C         20.97585         7.82851         0.03327
C         22.07944         5.59567         0.27903
C         22.18984         8.56135         0.21415
C         21.04549        10.72691         0.22504
C         21.03593        12.15423         0.20569
C         22.21972         9.95430         0.21948
C         22.20020        12.91632        -0.03105
C         21.07312        15.06858         0.31180
C         21.03130        16.51424         0.24386
C         22.19852        14.31777        -0.04692
C         22.19484        17.25917         0.02929
C         20.95420        19.31962        -0.29347
C         22.15402        18.65178        -0.20925
O         14.58117        17.41058         1.75168
O         19.19114         6.14792        -1.86612
O         12.95538        12.87001         2.14332
O         11.34915         6.64034         2.09717
O         17.77810         8.51385        -1.56779
O          6.68491        10.45411         2.11935
O          8.75141        10.58543        -0.90954
O         17.35458         4.93855         0.96751
O         12.47184        13.97198        -1.47528
O          4.69017        12.98586        -1.53633
O          2.15544         4.39845         1.31636
O         19.30934        14.76243         2.00079
O         12.53235         6.31521        -1.26050
O         19.19652         3.65017        -1.85167
O         13.85702         4.08684        -1.80673
O          6.92697        12.90919         1.15657
O          6.08537         7.56695        -1.08612
O         10.28619        10.51890         2.52407
O         17.10931        18.23634         1.46269
O          9.38481        13.93025        -1.95500
O          2.02584        17.00637        -2.13874
H          1.96724        16.05528        -2.37235
O         19.55444         9.85557         1.88704
H         20.38819         9.50550         2.26657
O         18.65604        10.98907        -1.49809
H         18.40328        10.13367        -1.93190
O          3.77995        10.98725         2.57031
H          4.74641        11.01810         2.75631
O          8.39400         5.84156         2.42337
H          8.94719         6.50355         2.91407
O         10.39672        12.88881         2.12974
H         11.03209        12.79982         2.87482
O         12.50971         3.96098         1.58226
H         11.85622         4.47364         2.10779
O          4.65175         5.15585        -1.74670
H          5.19382         5.99884        -1.64604
O          9.56978         8.20720         2.94306
H         10.04221         8.94519         3.39965
O         16.13444        16.35166        -1.38389
H         15.42144        15.75769        -1.70474
H          0.48032         0.99849        -1.13049
H          0.37873         2.74208         0.67837
H          2.62905         0.67499        -2.37655
H          0.20569         5.93872         1.69904
H          0.19947         8.41808         1.56795
H          0.14806        10.27246         0.90624
H          0.20568        12.67683         0.59676
H          0.36069        14.64743         0.76948
H          0.35533        17.02964         0.25460
H          1.64394        19.13671        -0.21083
H          4.99323         0.99435        -2.46079
H          3.84544        20.23123        -0.32639
H          7.34235         0.76814        -1.86825
H          6.23799        20.13140        -0.84460
H          9.73020         0.53044        -1.29127
H          8.70355        20.03186        -1.18901
H         12.14826         0.33946        -0.71636
H         11.05277        20.03045        -1.18110
H         14.69836         0.30110        -0.49151
H         13.41207        20.17968        -0.81792
H         17.09539         0.30006        -0.06696
H         16.04375        19.97018        -1.28919
H         19.62707         0.24331         0.13359
H         18.53024        20.31499        -0.70454
H         21.74869         1.44753         0.32204
H         22.93875         3.63637         0.68515
H         22.98416         6.08029         0.67280
H         23.14573         8.02074         0.21327
H         23.20070        10.45079         0.20520
H         23.14033        12.40195        -0.27349
H         23.12629        14.82758        -0.34218
H         23.17430        16.76185         0.03127
H         20.92992        20.39372        -0.52677
H         23.09717        19.19301        -0.36739
