         424
 CSIRO Nanostructure Databank - Neutral Graphene Oxide Data Set
C          1.15889         2.00001        -0.28822
C          1.12828         3.39919        -0.27413
C          2.36684         1.31728        -0.31467
C          2.32029         4.15791        -0.28342
C          1.09895         6.33957        -0.25875
C          1.09051         7.72080        -0.29310
C          2.30956         5.60860        -0.28771
C          2.29474         8.47068        -0.35327
C          1.09863        10.66180        -0.34559
C          1.10664        12.09539        -0.44054
C          2.25839         9.92686        -0.36689
C          2.25933        12.82965        -0.29673
C          1.14259        15.04172        -0.64149
C          1.19641        16.41965        -0.77244
C          2.31348        14.27501        -0.42602
C          2.42997        17.10636        -0.68564
C          2.47763        18.54749        -0.74840
C          3.59422         2.03399        -0.31714
C          3.56726         3.46881        -0.29597
C          4.82932         1.35095        -0.35036
C          4.79717         4.20081        -0.31676
C          3.54250         6.33312        -0.35165
C          3.52603         7.77218        -0.37865
C          4.77157         5.61323        -0.38063
C          4.78607         8.50772        -0.31230
C          3.54757        10.69845        -0.57543
C          3.50097        12.06056         0.12478
C          4.79296         9.91950        -0.22978
C          4.79363        12.82454        -0.05156
C          3.57197        14.94826        -0.37700
C          3.62266        16.36582        -0.50326
C          4.79817        14.19702        -0.21991
C          4.88140        17.07894        -0.31621
C          3.64693        19.23018        -0.58426
C          4.88994        18.54156        -0.34863
C          6.05727         2.05166        -0.31289
C          6.04514         3.48338        -0.27911
C          7.29577         1.35464        -0.30545
C          7.28247         4.18416        -0.12189
C          6.05448         6.34426        -0.66025
C          6.01144         7.80039        -0.27715
C          7.28458         5.62696        -0.15382
C          7.23081         8.49917        -0.12099
C          6.00326        10.63733        -0.05537
C          6.02118        12.07334         0.04580
C          7.23587         9.91968         0.00526
C          7.25996        12.75378         0.18332
C          6.12742        14.90895        -0.38663
C          6.05055        16.38965        -0.11399
C          7.22192        14.24423         0.46013
C          7.26209        17.12327         0.41543
C          6.09129        19.23070        -0.29246
C          7.33461        18.55785        -0.05674
C          8.51734         2.03693        -0.17202
C          8.48849         3.46056        -0.00249
C          9.77154         1.34646        -0.15146
C          9.74437         4.15126         0.32290
C          8.45766         6.34744         0.01208
C          8.47163         7.78083        -0.07730
C          9.72016         5.66527         0.35287
C          9.69473         8.48764         0.02776
C          8.47237        10.62226         0.10887
C          8.46386        12.05171         0.16740
C          9.69486         9.88985         0.13872
C          9.75725        12.77571        -0.10453
C          8.54460        14.96289         0.26678
C          8.55953        16.37083         0.25871
C          9.75315        14.25372         0.18627
C          9.78606        17.07637         0.24497
C          8.54613        19.20437        -0.14010
C          9.81109        18.53009         0.06354
C         11.00736         2.01476        -0.10982
C         11.03405         3.47526         0.02509
C         12.23706         1.32773        -0.06157
C         12.19896         4.17752        -0.06171
C         10.98709         6.39183         0.16707
C         10.95772         7.75895         0.03712
C         12.26680         5.61566         0.42858
C         12.19899         8.52220        -0.00260
C         10.95972        10.58330         0.46185
C         10.97312        12.07956         0.46260
C         12.23027         9.85787         0.27182
C         12.26119        12.79850         0.32951
C         10.98944        14.93807         0.21902
C         10.99768        16.34955         0.29450
C         12.25147        14.20147         0.23460
C         12.27295        17.06761         0.46086
C         11.00163        19.21992        -0.04194
C         12.29404        18.59250         0.26680
C         13.48336         2.01325        -0.18137
C         13.44783         3.48143        -0.56085
C         14.68790         1.35258        -0.17275
C         14.73022         4.22406        -0.26670
C         13.49225         6.33396        -0.06803
C         13.43167         7.76662        -0.32307
C         14.69924         5.65841        -0.26461
C         14.72266         8.53764        -0.49546
C         13.54629        10.57225         0.53301
C         13.47672        12.08442         0.39732
C         14.69158        10.06003        -0.38602
C         14.68780        12.78195         0.37115
C         13.48709        14.90871         0.18726
C         13.52138        16.33756         0.20440
C         14.71682        14.19375         0.26448
C         14.71371        17.02673        -0.04814
C         13.58983        19.21556        -0.04342
C         14.77485        18.49058        -0.00662
C         15.95900         2.03095        -0.59478
C         15.96364         3.52637        -0.33378
C         17.20519         1.36085        -0.08640
C         17.17731         4.19500        -0.38045
C         15.93792         6.40848        -0.37862
C         15.97382         7.78772        -0.31645
C         17.22822         5.67361        -0.64041
C         17.24113         8.51747        -0.23151
C         16.01091        10.63680         0.07340
C         15.95877        12.03907         0.51339
C         17.20973         9.97255        -0.03773
C         17.24818        12.81662         0.55780
C         15.95879        14.90732         0.12200
C         15.87172        16.23745        -0.34331
C         17.23965        14.28779         0.37677
C         17.31010        17.30350         1.30219
C         16.05622        19.15594         0.06019
C         17.25782        18.57813         0.50238
C         18.41843         2.01425        -0.12035
C         18.46006         3.43948        -0.62289
C         19.65192         1.35816         0.12820
C         19.70660         4.21478        -0.20804
C         18.40929         6.33354         0.06810
C         18.42512         7.82906        -0.19623
C         19.70135         5.59067        -0.19130
C         19.73167         8.55360        -0.36544
C         18.47293        10.68506         0.15908
C         18.49729        12.08453         0.33420
C         19.70670         9.99247         0.09009
C         19.71052        12.81123         0.39664
C         18.44010        14.97562         0.58018
C         18.55454        16.38773         1.21012
C         19.69216        14.24251         0.56928
C         19.76642        17.11662         0.69534
C         18.50437        19.21263         0.30008
C         19.74208        18.52384         0.43457
C         20.89208         2.04614         0.13498
C         20.92490         3.48206         0.04338
C         22.11564         1.34745         0.28191
C         22.12222         4.16909         0.40356
C         21.00896         6.34817        -0.31290
C         20.88805         7.77241         0.26949
C         22.17598         5.62572         0.32043
C         22.18435         8.53920         0.20218
C         20.92632        10.66936         0.23929
C         20.94073        12.09167         0.37057
C         22.18733         9.92354         0.22741
C         22.17684        12.79954         0.43986
C         20.93081        14.93586         0.61256
C         20.95475        16.38282         0.58351
C         22.16880        14.22112         0.52169
C         22.20317        17.07089         0.42796
C         20.97439        19.18668         0.17942
C         22.20114        18.50724         0.22879
C         23.32747         2.03899         0.47942
C         23.29520         3.45561         0.67813
C         24.59450         1.38914         0.39703
C         24.51675         4.11136         1.28467
C         23.31535         6.32262         0.59064
C         23.46241         7.74720         0.08715
C         24.48886         5.64484         1.19661
C         24.66843         8.50402         0.58452
C         23.42897        10.65734         0.29088
C         23.41477        12.07741         0.37145
C         24.66955         9.92898         0.45067
C         24.63920        12.81263         0.38811
C         23.41001        14.93836         0.51320
C         23.41088        16.35646         0.47728
C         24.64874        14.20983         0.45193
C         24.69235        17.12341         0.68718
C         23.43814        19.17758        -0.00662
C         24.67328        18.51922         0.10136
C         25.79677         2.11855         0.40688
C         25.81563         3.51412         0.75511
C         27.03182         1.49037         0.07066
C         27.02028         4.20511         0.80756
C         25.78567         6.38795         1.28606
C         25.84121         7.83022         0.91075
C         27.07991         5.58224         1.44080
C         27.07601         8.52918         1.07282
C         25.88492        10.62657         0.55683
C         25.90478        12.05476         0.08710
C         27.09787         9.95581         0.86942
C         27.15621        12.80377         0.42199
C         25.90919        14.94125         0.37217
C         25.93322        16.34210         0.34871
C         27.14774        14.21616         0.35454
C         27.15044        17.04724         0.16353
C         25.89373        19.16107        -0.14799
C         27.14573        18.47779        -0.05801
C         28.22129         2.19241         0.05756
C         28.25467         3.56948         0.44523
C         29.46381         1.46434        -0.39406
C         29.50052         4.28046         0.49511
C         28.31105         6.37436         1.05404
C         28.28819         7.77753         1.17110
C         29.52549         5.68031         0.80649
C         29.56249         8.48543         1.34894
C         28.31946        10.69108         0.90079
C         28.35776        12.09351         0.62838
C         29.56653        10.02919         1.26882
C         29.60714        12.80459         0.63754
C         28.38518        14.92572         0.33514
C         28.38604        16.34176         0.16404
C         29.61392        14.21268         0.42911
C         29.62037        17.03804         0.01172
C         28.36451        19.14307        -0.26075
C         29.61320        18.45842        -0.22229
C         30.74838         2.22345        -0.17728
C         30.73190         3.60530         0.18577
C         31.94524         1.56711        -0.41863
C         31.97257         4.30820         0.24151
C         30.77666         6.40146         0.77769
C         30.81656         7.79414         1.05151
C         31.99455         5.70925         0.53229
C         32.03301         8.52171         1.00828
C         30.84656        10.69836         0.99855
C         30.84026        12.10029         0.75815
C         32.04869         9.96694         1.01659
C         32.07914        12.79970         0.63237
C         30.85094        14.91773         0.31384
C         30.84970        16.32790         0.07516
C         32.08047        14.21015         0.40113
C         32.08610        17.01446        -0.11482
C         30.83829        19.12215        -0.43504
C         32.07606        18.42883        -0.40446
C         33.19348         2.24523        -0.35757
C         33.19729         3.63415        -0.03751
C         34.42131         1.58762        -0.64155
C         34.43584         4.34739        -0.02242
C         33.23539         6.41584         0.57304
C         33.25606         7.81905         0.80509
C         34.45911         5.73418         0.30025
C         34.50815         8.51537         0.83842
C         33.30004        10.66537         0.88892
C         33.30401        12.08734         0.72292
C         34.52301         9.95376         0.89486
C         34.54183        12.78765         0.57709
C         33.31580        14.90298         0.23572
C         33.31180        16.30772        -0.04213
C         34.54286        14.19014         0.32154
C         34.55153        16.98239        -0.28782
C         33.29801        19.07836        -0.67782
C         34.53167        18.38052        -0.65732
C         35.62730         2.28534        -0.67426
C         35.64429         3.69343        -0.38115
C         36.88223         1.61427        -0.93676
C         36.86092         4.43406        -0.45150
C         35.70197         6.43160         0.35754
C         35.71465         7.80546         0.70135
C         36.91402         5.76902        -0.04561
C         37.02184         8.45833         1.06643
C         35.77209        10.66003         0.82473
C         35.77302        12.07855         0.65960
C         37.00650         9.96929         0.91318
C         37.01085        12.78061         0.53052
C         35.78764        14.87714         0.13615
C         35.77314        16.28373        -0.20561
C         36.99895        14.17708         0.25446
C         37.00041        16.93746        -0.56145
C         35.73881        19.00947        -1.02148
C         36.96504        18.30359        -1.02227
C         38.05190         2.30660        -1.09367
C         38.02804         3.81503        -1.17991
C         39.31111         1.63503        -1.31056
C         39.34763         4.47753        -0.87417
C         38.16380         6.53315        -0.11186
C         38.20248         7.83107         0.34509
C         39.39017         5.85135        -0.53884
C         39.43423         8.64034         0.24181
C         38.22343        10.67758         0.90168
C         38.24426        12.06747         0.65190
C         39.49042         9.86714         1.15877
C         39.49407        12.73076         0.29519
C         38.29985        14.93994         0.25084
C         38.22556        16.24018        -0.51136
C         39.49369        14.08959        -0.09692
C         39.41126        16.83568        -0.99356
C         38.16836        18.91264        -1.44311
C         39.37618        18.19714        -1.46059
C         40.48387         2.32391        -1.34758
C         40.53793         3.75236        -1.09101
C         41.77766         4.41716        -1.00067
C         40.64787         6.51317        -0.48839
C         40.70567         7.96595        -0.19762
C         41.82411         5.77735        -0.72384
C         41.97428         8.61853         0.20853
C         40.80853        10.71197         1.05757
C         40.69041        11.97484         0.22319
C         42.01156         9.86030         0.71224
C         41.81630        12.55314        -0.37608
C         40.65088        14.67929        -0.64866
C         40.64604        16.09766        -1.03718
C         41.78658        13.86537        -0.84302
C         41.79401        16.74383        -1.48288
C         40.58755        18.80727        -1.91137
C         41.76409        18.09411        -1.90771
O         10.84104        11.37689         1.72823
O          9.69413         4.87712         1.61325
O         16.59953        12.34000         1.80384
O         39.45469         9.38244         2.49534
O         29.55967         9.31799         2.55442
O         16.49792        17.08243         2.19013
O         12.30124        17.96050         1.61253
O         39.91035         8.80651        -1.13069
O         13.97281         8.09747        -1.68275
O         24.90824         6.25437         2.47136
O         18.56167         3.31213        -2.09187
H         18.48978         4.23349        -2.44734
O         18.83639        16.06664         2.60364
H         17.95890        16.00747         3.05121
O         13.92460        10.24413         1.88964
H         13.23537        10.60080         2.49034
O         21.31763         6.40924        -1.73800
H         20.70385         7.07007        -2.14877
O         18.16501         6.18716         1.49520
H         18.94002         6.59267         1.95612
O         27.25364         5.31337         2.86687
H         27.17546         6.16720         3.34362
O         41.05728        11.23096         2.38532
H         40.55154        10.60850         2.98149
O         16.86839        16.73888        -1.12109
H         17.54838        16.04774        -1.26883
O          6.18177         6.33667        -2.14477
H          7.00522         6.82296        -2.36473
O         25.93071        11.94747        -1.39897
H         25.93671        12.86271        -1.75320
O         14.45656        10.60361        -1.70662
H         14.05035         9.87745        -2.23970
O         37.77715         4.10324        -2.60823
H         37.86029         5.07363        -2.72705
O          3.64658        10.96624        -2.00792
H          3.64769        10.10434        -2.47480
O         37.17457         8.15739         2.48556
H         38.05337         8.57543         2.75750
O          7.03316        17.19449         1.88235
H          7.78781        17.68877         2.27046
O         29.53237         0.16504         0.21368
H         29.61588         0.28638         1.18167
O          6.85662        14.37594         1.85604
H          6.87263        15.33951         2.08620
O         13.37840         3.49211        -2.03342
H         14.12563         2.92624        -2.34654
O         38.51089        15.33936         1.65809
H         37.73467        15.87382         1.93017
O         20.56397         7.58832         1.68144
H         20.63608         8.45938         2.12725
O          6.54697        14.75423        -1.78201
H          5.82142        15.09021        -2.34972
O         24.47288         3.74808         2.69176
H         25.00399         4.43215         3.16668
O         24.77369        17.32437         2.14784
H         23.97493        17.82742         2.41567
O         23.72960         7.59951        -1.35559
H         22.93020         7.15255        -1.74729
O         19.96618         8.63581        -1.81801
H         19.18874         9.08249        -2.21590
O          9.94183        12.67341        -1.56173
H          9.19315        13.14253        -1.98946
O          3.38021        11.78995         1.54923
H          3.49681        12.63465         2.03197
O         12.38347         5.52930         1.88715
H         11.50400         5.21529         2.21544
O         16.00176         1.94362        -2.07877
H         16.89483         2.28624        -2.34323
O         17.48992         5.83415        -2.08668
H         16.64183         5.67851        -2.55643
H          0.21314         1.44026        -0.28302
H          0.15119         3.89980        -0.25961
H          2.38563         0.21829        -0.33353
H          0.13697         5.81254        -0.20925
H          0.12350         8.24031        -0.26839
H          0.11692        10.16849        -0.30552
H          0.14409        12.58986        -0.63652
H          0.16540        14.54308        -0.69449
H          0.27095        16.99389        -0.92293
H          1.53670        19.09205        -0.91554
H          4.83616         0.25120        -0.37840
H          3.65838        20.32927        -0.62559
H          7.29214         0.25704        -0.37613
H          6.10446        20.31534        -0.48069
H          9.76315         0.24810        -0.21395
H          8.56808        20.27985        -0.37660
H         12.23922         0.23010         0.01899
H         10.98679        20.28351        -0.32625
H         14.71312         0.26510         0.00053
H         13.62885        20.31129        -0.14571
H         17.16114         0.29861         0.20066
H         16.09348        20.20558        -0.27680
H         19.64590         0.27664         0.33306
H         18.52047        20.24107        -0.09395
H         22.11943         0.24863         0.23241
H         20.96428        20.26656        -0.03079
H         24.62596         0.31009         0.18406
H         23.41680        20.23853        -0.29984
H         27.03549         0.42307        -0.19519
H         25.89207        20.22234        -0.44162
H         29.36423         1.27808        -1.50158
H         28.35940        20.22656        -0.45397
H         31.92403         0.50082        -0.68797
H         30.83698        20.20345        -0.64025
H         34.41021         0.51017        -0.86415
H         33.29364        20.14805        -0.93628
H         36.88514         0.51395        -0.98168
H         35.72537        20.06372        -1.33622
H         39.30557         0.54053        -1.42539
H         38.15462        19.96162        -1.77492
H         41.43349         1.79331        -1.51134
H         42.70798         3.85691        -1.17176
H         42.80083         6.27856        -0.69409
H         42.91594         8.06354         0.08190
H         42.98551        10.27667         1.01484
H         42.74504        11.97214        -0.46541
H         42.68956        14.27756        -1.31377
H         42.75519        16.21342        -1.51425
H         40.56457        19.85102        -2.25619
H         42.69619        18.56640        -2.24859
