         424
 CSIRO Nanostructure Databank - Neutral Graphene Oxide Data Set
C          1.24543         2.02415        -0.59950
C          1.22958         3.47005        -0.72531
C          2.37944         1.36264        -0.28705
C          2.38663         4.19391        -0.78697
C          1.23681         6.34912        -1.23438
C          1.25051         7.71907        -1.44194
C          2.42598         5.64497        -0.95674
C          2.44797         8.44955        -1.35647
C          1.22566        10.67382        -1.77510
C          1.25955        12.03090        -1.77883
C          2.46309         9.88748        -1.69853
C          2.46556        12.77469        -1.49883
C          1.66796        14.65814        -0.07688
C          1.76086        15.91417         0.43133
C          2.31240        14.28374        -1.38323
C          2.80311        16.81032         0.00113
C          2.92854        18.10865         0.59025
C          3.62604         2.15623         0.02020
C          3.68877         3.42609        -0.83167
C          4.91171         1.38664        -0.11164
C          4.91049         4.24356        -0.47720
C          3.64584         6.36740        -0.84265
C          3.65355         7.78367        -1.00758
C          4.89297         5.66062        -0.55600
C          4.85028         8.55753        -0.68580
C          3.75679        10.67613        -1.38470
C          3.63712        12.13118        -1.19881
C          4.86127         9.93998        -0.75648
C          4.82426        12.95528        -0.73621
C          3.66340        15.07759        -1.70576
C          3.82914        16.31721        -0.84020
C          4.93709        14.15940        -1.68036
C          5.03512        17.02467        -0.93468
C          4.03742        18.88182         0.36629
C          5.15174        18.35612        -0.38144
C          6.10275         2.07468        -0.16009
C          6.10211         3.54076        -0.22129
C          7.36310         1.39346        -0.10768
C          7.32114         4.24488        -0.05246
C          6.08879         6.38454        -0.35120
C          6.07089         7.83659        -0.31467
C          7.32010         5.67798        -0.10408
C          7.23454         8.52739        -0.03566
C          5.92117        10.75974        -0.04539
C          6.11405        12.15083        -0.63751
C          7.23209         9.99712         0.13603
C          7.34454        12.74974        -0.80900
C          6.20548        14.93914        -1.41220
C          6.24437        16.31704        -1.31973
C          7.43920        14.13428        -1.36332
C          7.51167        17.03310        -1.27815
C          6.30462        19.09284        -0.57694
C          7.45915        18.54768        -1.37209
C          8.56245         2.08535         0.01732
C          8.55750         3.53571         0.09341
C          9.81351         1.39720         0.08275
C          9.76063         4.23264         0.27793
C          8.53444         6.37566         0.05713
C          8.55938         7.83958        -0.26120
C          9.76203         5.68237         0.30463
C          9.76031         8.58230         0.25097
C          8.54107        10.71555         0.03021
C          8.59457        12.11365        -0.43180
C          9.80257         9.93873         0.11397
C          9.82942        12.77521        -0.38381
C          8.75890        14.87744        -1.26851
C          8.70144        16.35883        -1.22301
C          9.94126        14.18379        -0.69665
C          9.98285        17.09298        -1.14385
C          8.73411        19.21572        -0.93852
C          9.94222        18.55049        -0.86596
C         11.00957         2.08106         0.24965
C         11.00963         3.52160         0.38306
C         12.26679         1.39073         0.34510
C         12.21105         4.20267         0.59297
C         10.94889         6.37754         0.56282
C         10.91900         7.84901         0.86360
C         12.18558         5.64562         1.00599
C         12.23931         8.54480         0.63533
C         11.03024        10.68511         0.26878
C         11.03796        12.07211         0.03397
C         12.25103         9.96038         0.50425
C         12.27207        12.79171         0.17463
C         11.12124        14.87579        -0.46975
C         11.22811        16.32152        -0.77499
C         12.30641        14.20440         0.00650
C         12.38980        17.06995        -0.25783
C         11.15817        19.20965        -0.55312
C         12.36761        18.51114        -0.30402
C         13.44644         2.06028         0.53220
C         13.46351         3.50811         0.63250
C         14.73477         1.27956         0.65521
C         14.66760         4.22834         0.71496
C         13.46944         6.38770         0.72676
C         13.45158         7.81591         0.67412
C         14.68343         5.67074         0.67481
C         14.69996         8.52734         0.64624
C         13.47516        10.66965         0.58711
C         13.47638        12.09697         0.49436
C         14.70960         9.94831         0.70836
C         14.67311        12.82697         0.73436
C         13.50037        14.92533         0.27564
C         13.52111        16.37943         0.18257
C         14.66970        14.22241         0.67472
C         14.73827        17.09984         0.44383
C         13.55895        19.21347        -0.03630
C         14.75993        18.52983         0.26712
C         15.91645         2.11430         0.15152
C         15.95355         3.46025         0.89893
C         17.22151         1.38532         0.28484
C         17.20595         4.24258         0.57041
C         15.93257         6.37708         0.56285
C         15.93144         7.81512         0.57234
C         17.17975         5.66854         0.50758
C         17.14659         8.54798         0.53322
C         15.93655        10.63947         0.87168
C         15.90980        12.10537         1.23792
C         17.14729         9.93533         0.77081
C         17.17464        12.85471         0.87568
C         15.87214        14.97240         1.20794
C         15.93354        16.41866         0.77315
C         17.17614        14.23469         0.97864
C         17.15719        17.10911         0.81091
C         15.97771        19.22782         0.40872
C         17.18657        18.53928         0.63644
C         18.41472         2.07918         0.38769
C         18.40689         3.54441         0.43486
C         19.66462         1.40127         0.36857
C         19.64827         4.25215         0.32797
C         18.40934         6.37222         0.35911
C         18.38973         7.84865         0.05336
C         19.63261         5.68479         0.29885
C         19.68303         8.55587         0.38611
C         18.43553        10.67919         1.02717
C         18.40760        12.09340         0.43497
C         19.69185         9.94201         0.60961
C         19.69798        12.80139         0.77808
C         18.39271        14.97272         1.02052
C         18.40446        16.39766         1.00985
C         19.66581        14.21197         1.30117
C         19.61450        17.12464         1.07649
C         18.42108        19.22966         0.69329
C         19.64074        18.54409         0.89748
C         20.88390         2.10407         0.31331
C         20.87498         3.55069         0.26745
C         22.11674         1.42274         0.28240
C         22.10802         4.26479         0.15864
C         20.88803         6.40106         0.17412
C         20.89430         7.84227         0.25660
C         22.09163         5.69069         0.08144
C         22.15627         8.54595         0.31371
C         20.91838        10.66144         0.62309
C         20.89755        12.11298         0.80388
C         22.14569         9.98188         0.49921
C         22.15586        12.81246         0.98807
C         20.87784        14.99491         0.80404
C         20.89511        16.40368         1.41210
C         22.17033        14.25055         1.04664
C         22.15194        17.13927         1.02311
C         20.88142        19.24019         0.86559
C         22.13166        18.56257         0.87682
C         23.34578         2.12453         0.24608
C         23.34475         3.56067         0.17350
C         24.56958         1.42417         0.29852
C         24.59388         4.27534         0.22086
C         23.36741         6.41640        -0.26061
C         23.35609         7.86197         0.14723
C         24.62431         5.68741         0.15146
C         24.64449         8.61176        -0.03889
C         23.39455        10.68789         0.63793
C         23.38381        12.10531         0.94357
C         24.60843        10.00666         0.51891
C         24.62053        12.79281         1.09329
C         23.34350        14.96950         1.14587
C         23.35771        16.42113         1.00946
C         24.63098        14.26126         1.47335
C         24.59222        17.11606         0.84381
C         23.36040        19.24479         0.72186
C         24.58979        18.54390         0.70695
C         25.80612         2.10820         0.36083
C         25.81303         3.54642         0.36229
C         27.02799         1.40164         0.39717
C         27.04984         4.24201         0.48841
C         25.84458         6.39873         0.33746
C         25.87376         7.82925         0.36407
C         27.06563         5.67806         0.52732
C         27.06787         8.52368         0.62246
C         25.84792        10.65972         0.79293
C         25.83839        12.08934         1.02869
C         27.05447         9.94749         0.80547
C         27.08525        12.78446         1.02459
C         25.82312        14.99089         0.90897
C         25.82729        16.37939         0.75998
C         27.03908        14.22214         0.70508
C         27.07391        17.10501         0.60936
C         25.82162        19.23113         0.54795
C         27.05749        18.54690         0.52483
C         28.26419         2.08044         0.48355
C         28.25332         3.50467         0.60714
C         29.49390         1.37473         0.30782
C         29.50606         4.22192         0.83575
C         28.30468         6.38991         0.64953
C         28.31779         7.81166         0.71648
C         29.53863         5.68355         0.70929
C         29.56286         8.51210         0.78746
C         28.30740        10.62580         1.30151
C         28.31958        12.10850         1.03635
C         29.59056         9.93729         0.90164
C         29.55654        12.79081         0.98163
C         28.34258        14.97084         0.62097
C         28.30501        16.43957         0.66913
C         29.55566        14.28429         1.19202
C         29.54836        17.12908         0.61092
C         28.28384        19.23555         0.40013
C         29.52621        18.55608         0.41195
C         30.72888         2.03199         0.21029
C         30.81724         3.44789         0.61896
C         31.89470         1.40295        -0.26435
C         32.00338         4.23185         0.26235
C         30.77388         6.36498         0.63944
C         30.79249         7.79979         0.66951
C         32.00011         5.64325         0.40757
C         32.03031         8.51068         0.61260
C         30.79575        10.64772         0.84600
C         30.79697        12.10114         0.90981
C         32.05206         9.94786         0.71610
C         32.02475        12.82285         0.85297
C         30.83172        14.98411         0.82376
C         30.78902        16.41813         0.64668
C         32.01660        14.26387         0.83911
C         31.99802        17.12531         0.41021
C         30.74289        19.23662         0.18721
C         31.96768        18.53844         0.14515
C         33.10476         2.12141        -0.45320
C         33.14199         3.54627        -0.21380
C         34.27396         1.47157        -0.89904
C         34.34505         4.27239        -0.45311
C         33.21402         6.37226         0.20754
C         33.24127         7.79529         0.39810
C         34.38791         5.68319        -0.19426
C         34.49082         8.49004         0.36805
C         33.27476        10.65716         0.71817
C         33.28372        12.10913         0.77967
C         34.52644         9.93152         0.57960
C         34.50049        12.81178         0.69657
C         33.30655        15.03065         0.99932
C         33.25359        16.43774         0.44580
C         34.53736        14.25204         0.59352
C         34.42132        17.11574         0.15295
C         33.17947        19.20611        -0.16523
C         34.39070        18.50754        -0.21648
C         35.47248         2.18165        -1.12999
C         35.48590         3.59235        -0.93827
C         36.69491         1.47720        -1.41696
C         36.68859         4.36772        -1.24577
C         35.62876         6.39550        -0.29171
C         35.66965         7.76772         0.09998
C         36.80461         5.74163        -0.74016
C         36.98523         8.39938         0.22711
C         35.73905        10.61462         0.56170
C         35.78858        12.06331         0.97760
C         37.02456         9.91088         0.49569
C         37.06671        12.78922         0.53018
C         35.69132        14.93816         0.30055
C         35.76790        16.44659         0.27944
C         36.99865        14.24776         0.20379
C         36.68798        16.92321        -0.86800
C         35.59537        19.15780        -0.62793
C         36.75691        18.43644        -0.91186
C         37.91609         2.11701        -1.50310
C         37.97526         3.58934        -1.54726
C         39.16868         1.40733        -1.54096
C         39.25486         4.26788        -1.30375
C         38.07247         6.39855        -0.76860
C         38.16599         7.74477        -0.34723
C         39.28837         5.66451        -1.05474
C         39.39693         8.45807        -0.42713
C         38.24528        10.63417         0.06639
C         38.24231        12.02971         0.02708
C         39.42098         9.89337        -0.28520
C         39.39914        12.75236        -0.41349
C         38.13111        14.90214        -0.49488
C         38.04507        16.24810        -0.85173
C         39.35449        14.17394        -0.65148
C         39.19897        16.94586        -1.31333
C         37.92560        19.07208        -1.34916
C         39.13055        18.35799        -1.58795
C         40.36434         2.06821        -1.49030
C         40.44020         3.50247        -1.33485
C         41.68436         4.16868        -1.20313
C         40.54934         6.31934        -0.94713
C         40.59075         7.75056        -0.74863
C         41.73358         5.54058        -1.04500
C         41.80091         8.48152        -0.87727
C         40.62323        10.59933        -0.56294
C         40.60376        12.03713        -0.65996
C         41.81260         9.85627        -0.80877
C         41.76014        12.76163        -1.06354
C         40.50751        14.85183        -1.13285
C         40.44359        16.26236        -1.44379
C         41.71305        14.11588        -1.29452
C         41.57525        16.98636        -1.89273
C         40.28748        19.03373        -2.03081
C         41.48994        18.34556        -2.18803
O         27.76131        14.44647        -0.59240
O         37.18495         4.19284        -2.62263
O         10.93283        16.68510        -2.18176
O         37.46618        13.77973         1.55439
O         30.30418         3.70828         1.95972
O          7.86757        10.51009         1.37216
O          3.53811        15.56056        -3.01971
O          8.30629        14.28065        -2.53430
O         37.24598         8.94738         1.57249
O          3.44080        10.20666        -2.73646
O         28.25021        10.48770         2.77391
H         28.99176        11.01190         3.14544
O         18.29430         7.92183        -1.42192
H         19.08816         7.47642        -1.78669
O         24.78255        14.31590         2.94028
H         23.93073        14.03066         3.33489
O         19.74782        14.06723         2.74668
H         19.09028        13.38873         3.01409
O         20.70525        15.12215        -0.62909
H         21.50074        15.56220        -0.99608
O          1.34196        14.72480        -2.35145
H          1.89529        15.20803        -3.03882
O         36.02886        16.48762        -2.09361
H         36.53195        16.85342        -2.85097
O         24.78974         8.78560        -1.50792
H         24.55214         7.91105        -1.90980
O         33.44756        15.20305         2.45700
H         34.25202        15.74863         2.60365
O         20.97112        16.28247         2.86124
H         20.92195        17.18586         3.23731
O         15.83511        12.15274         2.70444
H         15.78451        13.10950         2.95709
O          4.55868        13.47491         0.59539
H          4.63573        12.69869         1.20684
O         12.10169         5.60610         2.51297
H         11.39337         4.96338         2.73793
O          3.53079         2.58573         1.41440
H          3.45856         1.78370         1.97224
O          5.36869        10.97352         1.30306
H          6.15541        10.99146         1.90353
O         15.69095        14.99256         2.67656
H         14.88071        15.51267         2.86589
O         15.67934         2.34308        -1.26414
H         16.46632         2.79663        -1.63312
O          8.73565         7.89518        -1.74300
H          8.00610         7.37534        -2.14533
O          5.08903        13.63949        -3.00839
H          4.59405        14.30508        -3.57193
O         16.03926         3.11431         2.31882
H         16.05934         3.95135         2.82861
O         18.32970        11.95231        -1.01040
H         18.49397        12.83091        -1.41291
O          7.22040        18.88770        -2.78037
H          7.79217        18.30913        -3.32843
O          3.87451         2.99759        -2.21304
H          3.84631         3.79489        -2.78200
O         23.42235         6.42123        -1.76504
H         22.55565         6.76081        -2.07780
O         29.42982        14.48417         2.64758
H         30.30889        14.31536         3.05016
O         14.66691         0.06246        -0.08786
H         14.72255         0.31170        -1.03553
O         18.53714        10.88451         2.46839
H         18.29323        10.04989         2.91990
O         10.69513         7.93282         2.32528
H         11.32205         7.28452         2.73692
O         35.84744        11.99218         2.44062
H         36.34698        12.79026         2.73522
O         36.33838        16.85808         1.55135
H         37.11642        16.28724         1.73197
H          0.29956         1.48135        -0.74413
H          0.24656         3.96005        -0.76991
H          2.38250         0.27080        -0.14622
H          0.28574         5.80978        -1.33146
H          0.31229         8.22423        -1.70554
H          0.25813        10.15624        -1.83848
H          0.33167        12.60619        -1.90683
H          0.97295        13.93615         0.38159
H          1.13820        16.21921         1.28701
H          2.10484        18.48771         1.21271
H          4.91034         0.28897        -0.01889
H          4.10841        19.89750         0.78196
H          7.37060         0.29337        -0.13088
H          6.38273        20.10596        -0.15115
H          9.81985         0.29979         0.00481
H          8.70777        20.30200        -0.76108
H         12.27951         0.29374         0.26202
H         11.15643        20.30612        -0.46408
H         14.90428         1.01423         1.73031
H         13.56782        20.31090        -0.10737
H         17.22752         0.29167         0.16178
H         15.99033        20.32146         0.29262
H         19.67501         0.30139         0.36160
H         18.43310        20.31981         0.54699
H         22.12721         0.32351         0.32317
H         20.87116        20.33175         0.73331
H         24.56039         0.32450         0.32397
H         23.36134        20.33851         0.60874
H         27.01729         0.30406         0.32987
H         25.81316        20.32733         0.45301
H         29.44634         0.29751         0.08866
H         28.27513        20.32952         0.28325
H         31.86364         0.33315        -0.51909
H         30.73227        20.32180         0.00857
H         34.25632         0.38255        -1.05382
H         33.15752        20.27924        -0.40590
H         36.66213         0.37720        -1.44091
H         35.58777        20.24910        -0.77201
H         39.14591         0.30936        -1.60296
H         37.92765        20.16643        -1.46752
H         41.30625         1.50154        -1.52345
H         42.61475         3.58397        -1.23652
H         42.71491         6.02481        -0.95265
H         42.74074         7.95627        -1.09245
H         42.76532        10.37794        -0.96552
H         42.71024        12.23717        -1.22616
H         42.62674        14.62305        -1.63025
H         42.54433        16.48442        -2.01009
H         40.23404        20.11135        -2.24092
H         42.38464        18.88184        -2.53387
