         234
 CSIRO Nanostructure Databank - Neutral Graphene Oxide Data Set
C          1.43498         2.02360        -0.75340
C          1.39010         3.44429        -0.81275
C          2.63329         1.35845        -0.74368
C          2.55084         4.20253        -0.79328
C          1.23491         6.37951        -0.73948
C          1.12846         7.60233        -0.20136
C          2.55581         5.70836        -1.01769
C          2.31529         8.37232         0.21593
C          1.03723        10.69514         0.13957
C          1.03385        12.02179        -0.09591
C          2.27907         9.91128         0.30350
C          2.26715        12.76704        -0.44660
C          1.15194        15.03219        -0.19048
C          1.20529        16.42206        -0.17834
C          2.32059        14.25817        -0.34306
C          2.44177        17.09646        -0.25918
C          2.52200        18.54523        -0.26825
C          3.87192         2.09130        -0.77480
C          3.81788         3.54304        -0.72398
C          5.08935         1.44475        -0.87520
C          5.01333         4.27057        -0.48158
C          3.72615         6.38860        -0.32896
C          3.64032         7.73899         0.05238
C          4.94807         5.69302        -0.17693
C          4.80933         8.46219         0.41243
C          3.56517        10.59007         0.14111
C          3.58306        11.98165        -0.31086
C          4.77669         9.92498         0.41130
C          4.84356        12.71398        -0.22959
C          3.56657        14.92201        -0.43041
C          3.62649        16.33065        -0.34820
C          4.81260        14.12954        -0.63875
C          4.92197        17.05226        -0.28400
C          3.70494        19.21794        -0.38303
C          4.96963        18.52622        -0.44284
C          6.34801         2.23577        -1.08675
C          6.26467         3.60077        -0.44595
C          7.58885         1.48583        -0.73350
C          7.41172         4.22115         0.07455
C          6.09187         6.36279         0.32743
C          6.02856         7.74578         0.56224
C          7.27646         5.53662         0.80677
C          7.20462         8.46856         1.09432
C          5.99403        10.67287         0.47879
C          6.02435        12.07259         0.16123
C          7.18421         9.98214         1.01360
C          7.29252        12.81571         0.13253
C          6.12932        14.82367        -0.75368
C          6.18814        16.29612        -0.49266
C          7.35798        14.08827        -0.37495
C          7.41881        17.03552        -0.90069
C          6.18152        19.18149        -0.54942
C          7.44909        18.49896        -0.67336
C          8.71028         2.13204        -0.24331
C          8.64995         3.54008         0.11352
C          9.94061         1.42608        -0.06243
C          9.84290         4.20225         0.54647
C          8.58626         6.29441         0.89925
C          8.52007         7.72989         1.24764
C          9.79906         5.63710         0.84667
C          9.81570         8.50203         1.25382
C          8.49002        10.72428         1.07072
C          8.53017        12.16854         0.63229
C          9.78007         9.95139         0.79274
C          9.83552        12.76603         0.32502
C          8.64494        14.76057        -0.70750
C          8.70499        16.25083        -0.94881
C          9.92151        14.04262        -0.38897
C          9.96435        16.99266        -0.70760
C          8.67208        19.13714        -0.68398
C          9.93278        18.42298        -0.69084
C         11.10194         2.07874         0.35334
C         11.04268         3.49103         0.64533
C         12.34957         1.36453         0.39079
C         12.27084         4.17446         1.09784
C         11.07027         6.35330         0.99071
C         11.09134         7.76480         1.05135
C         12.30515         5.65779         1.03344
C         12.31777         8.46197         1.03706
C         11.01487        10.70923         1.25173
C         11.01273        12.19844         0.99466
C         12.29780         9.93789         1.23263
C         12.31303        12.91780         0.92109
C         11.20383        14.83073        -0.41282
C         11.17751        16.31251        -0.48373
C         12.42817        14.20644         0.17618
C         12.38638        17.03204        -0.28771
C         11.14897        19.12571        -0.57948
C         12.38043        18.45632        -0.39572
C         13.56695         1.98037         0.65257
C         13.56286         3.39280         1.10853
C         14.81103         1.30220         0.52844
C         14.85834         4.14487         1.05774
C         13.53027         6.36366         1.02922
C         13.55129         7.77461         0.99764
C         14.83186         5.64399         1.04608
C         14.84452         8.54579         0.71940
C         13.57113        10.66728         0.96470
C         13.59015        12.14229         0.90369
C         14.82964         9.96253         1.28293
C         14.83900        12.90219         1.22623
C         13.61452        15.02483         0.44760
C         13.62142        16.36937         0.08551
C         14.83288        14.37615         0.95797
C         14.84989        17.10591         0.19456
C         13.61898        19.16512        -0.25679
C         14.82063        18.51275         0.00107
C         16.05214         1.96711         0.53259
C         16.07164         3.42489         0.58533
C         17.26477         1.27388         0.27714
C         17.19428         4.12717         0.24969
C         16.04920         6.37175         0.60190
C         16.14443         7.73169         0.74059
C         17.08213         5.57954        -0.15599
C         17.39140         8.37975         0.34785
C         15.95084        10.73006         1.49185
C         16.11518        12.14557         1.18656
C         17.74477         9.66033         0.84320
C         17.30718        12.75355         0.78407
C         16.12422        15.00827         0.66229
C         16.09856        16.39130         0.36957
C         17.31522        14.21974         0.56723
C         17.33531        17.07525         0.16802
C         16.08969        19.31215         0.19103
C         17.35616        18.49942         0.01570
C         18.48236         1.94951         0.08970
C         18.48169         3.42297         0.13316
C         19.69130         1.29162        -0.23590
C         19.68645         4.15387        -0.42035
C         18.36898         6.31445        -0.45946
C         18.39010         7.69821        -0.42763
C         19.51376         5.53433        -0.96461
C         19.50585         8.50485        -1.01221
C         18.62827        10.55528         0.28198
C         18.56446        12.00802         0.49506
C         19.54777        10.05331        -0.81422
C         19.72476        12.68629         0.17515
C         18.50235        14.89382         0.20209
C         18.53559        16.31334         0.06793
C         19.69224        14.11703        -0.29279
C         19.77968        16.99853        -0.16395
C         18.55442        19.14313        -0.20097
C         19.78481        18.41718        -0.27601
C         20.83447         1.98004        -0.66745
C         20.85419         3.36860        -0.85502
C         22.02205         4.10361        -1.24099
C         20.78359         6.24881        -1.41907
C         20.77026         7.76388        -1.42557
C         22.03188         5.46912        -1.36103
C         22.03532         8.49801        -1.26641
C         20.93648        10.56232        -0.49803
C         21.03173        11.91217         0.18196
C         22.07172         9.78843        -0.75028
C         22.18756        12.70277        -0.35773
C         21.00842        14.84642        -0.21577
C         21.02060        16.27620        -0.24311
C         22.17490        14.06892        -0.44674
C         22.22413        17.01448        -0.36238
C         21.01146        19.10818        -0.43645
C         22.21259        18.40646        -0.46040
O         12.17384        14.14757        -1.27935
O          9.18014         8.13755         2.49980
O         12.82020         3.60195         2.34491
O          2.20040         9.04958         1.50040
O          2.90479        12.22115        -1.63683
O         11.55996        12.99297         2.15424
O         14.69371        13.82186         2.34836
O          6.87901         9.27094         2.26793
O          5.45459        14.39375        -1.96513
O         19.48325         4.05424         1.02893
O         19.82382         5.66750        -2.37608
O         17.07119        10.07853         1.99863
O         19.79477         8.23762        -2.42595
O         13.64195        11.36509        -0.35722
O          8.50038        11.73927         2.09155
O          9.32998        13.99556        -1.76180
O          7.98832        16.62919        -2.17690
O          5.76815        16.60388         0.87066
O         11.62586        10.30954         2.49365
O         15.11023         4.89688         2.29369
O         19.10127        10.66233        -2.05168
H         19.42944        10.08635        -2.78127
O          2.78993         5.88719        -2.45727
H          3.64921         5.46559        -2.67019
O         19.45175        13.99138        -1.75787
H         19.40355        14.90214        -2.12031
O         16.10384        20.46582        -0.65540
H         16.07975        20.16379        -1.58623
O          9.86723         9.85344        -0.66059
H          9.97673        10.75514        -1.03771
O         21.32535        11.63618         1.60375
H         21.35583        12.49521         2.07561
O         16.45165         5.46607        -1.50633
H         16.42721         6.36703        -1.89892
O          6.41627         2.47082        -2.56303
H          5.55034         2.85017        -2.82702
O          6.94441         5.17312         2.19197
H          6.99841         5.98755         2.73751
O         14.76872         8.77378        -0.74448
H         14.37293         9.65797        -0.92497
H          0.49015         1.46251        -0.74677
H          0.40526         3.92651        -0.87069
H          2.66793         0.25971        -0.74007
H          0.31970         5.86167        -1.06043
H          0.13760         8.04758        -0.02905
H          0.09163        10.18596         0.37535
H          0.07708        12.56350        -0.07972
H          0.17268        14.54002        -0.11816
H          0.27566        17.00318        -0.09949
H          1.57916        19.10859        -0.20997
H          5.12646         0.34765        -0.95095
H          3.70922        20.31721        -0.42326
H          7.63589         0.41241        -0.97124
H          6.18994        20.28259        -0.56306
H          9.97816         0.35515        -0.31128
H          8.70908        20.23250        -0.58073
H         12.33882         0.30082         0.10784
H         11.13575        20.22571        -0.60075
H         14.79513         0.21973         0.32834
H         13.62079        20.25994        -0.36414
H         17.24099         0.17694         0.19172
H         16.08638        19.70294         1.24898
H         19.71911         0.19303        -0.19196
H         18.57163        20.23821        -0.30221
H         21.73458         1.40097        -0.92196
H         22.96812         3.55010        -1.34035
H         22.99065         5.98548        -1.50969
H         22.98405         7.96789        -1.42409
H         23.06378        10.21023        -0.53017
H         23.12595        12.17287        -0.57193
H         23.11430        14.57678        -0.71213
H         23.18894        16.49132        -0.39421
H         21.00493        20.20391        -0.52162
H         23.16227        18.94934        -0.56495
