         424
 CSIRO Nanostructure Databank - Neutral Graphene Oxide Data Set
C          1.34065         3.59408         1.44505
C          0.13339         4.26800         1.39779
C          1.23956         6.34190         0.71648
C          0.07841         5.62489         1.02821
C          1.20473         7.74509         0.32944
C         -0.00627         8.44472         0.18974
C          1.15647        10.49671        -0.42357
C         -0.02484         9.78331        -0.20456
C          1.11387        11.92143        -0.93623
C         -0.08519        12.70594        -0.47400
C          1.14471        14.81557        -0.66133
C         -0.06803        14.05455        -0.43053
C          1.13297        16.22667        -0.71152
C         -0.09058        16.97425        -0.71797
C          1.12821        19.09355        -0.64273
C         -0.09140        18.34136        -0.72499
C          1.11242        20.51014        -0.50072
C         -0.07009        21.27613        -0.55323
C          1.14726        23.40416        -0.29687
C         -0.06427        22.65600        -0.40514
C          1.14949        24.84689        -0.30047
C         -0.04847        25.60735        -0.34868
C          1.18737        27.71714        -0.30634
C         -0.03211        26.98682        -0.33659
C          1.18827        29.18343        -0.20025
C         -0.01928        29.92219        -0.11252
C          1.18499        32.02408         0.22742
C         -0.01697        31.29474         0.07219
C          1.20113        33.46902         0.36455
C         -0.00276        34.23142         0.48342
C          1.21991        36.33609         0.69213
C          0.01965        35.60864         0.69930
C          1.27480        37.73622         0.92462
C          3.77402         3.55913         1.09802
C          2.55380         4.26629         1.13931
C          3.69842         6.36393         0.50398
C          2.51088         5.67188         0.79640
C          3.66582         7.73040         0.10376
C          2.42261         8.43731         0.05301
C          3.63617        10.54336        -0.47990
C          2.40228         9.82894        -0.29169
C          3.63493        11.96996        -0.68262
C          2.40168        12.68613        -0.72287
C          3.61723        14.84170        -0.83374
C          2.38512        14.09761        -0.73147
C          3.59995        16.23629        -0.91694
C          2.36999        16.95909        -0.79357
C          3.62472        19.10057        -0.61408
C          2.36313        18.37550        -0.69066
C          3.63739        20.49882        -0.40980
C          2.36412        21.20932        -0.03229
C          3.60017        23.40277        -0.27303
C          2.38028        22.70343        -0.27323
C          3.62473        24.81407        -0.23844
C          2.38912        25.55005        -0.25264
C          3.68384        27.66739        -0.36694
C          2.38719        26.97689        -0.28889
C          3.67770        29.20319        -0.26619
C          2.39764        29.90076        -0.07960
C          3.66252        31.99656         0.38111
C          2.41765        31.30451         0.18430
C          3.66929        33.42583         0.48222
C          2.43965        34.14295         0.41057
C          3.73539        36.30667         0.69815
C          2.47210        35.63801         0.23631
C          3.73609        37.72257         0.87166
C          2.47291        38.41806         0.95035
C          6.19538         3.48670         0.70155
C          4.98916         4.18858         0.77918
C          6.02473         6.20498        -0.36698
C          5.05154         5.69848         0.71517
C          6.12340         7.71909        -0.22763
C          4.88380         8.42674        -0.19900
C          6.11159        10.53653        -0.53860
C          4.87159         9.84104        -0.39695
C          6.10985        11.95438        -0.75350
C          4.86466        12.67426        -0.80013
C          6.07674        14.80940        -0.99222
C          4.87120        14.11100        -0.90993
C          6.12569        16.24947        -0.99503
C          4.85025        16.99823        -1.30730
C          6.06594        19.10718        -0.65435
C          4.85179        18.42418        -0.80987
C          6.07217        20.48549        -0.37007
C          4.85570        21.19105        -0.34902
C          6.14004        23.36822        -0.06918
C          4.89121        22.68054        -0.57496
C          6.10642        24.77720         0.07187
C          4.89392        25.49890        -0.08073
C          6.11686        27.62431         0.18513
C          4.90750        26.92278        -0.04287
C          6.07195        29.06648         0.46047
C          4.88591        29.86521         0.21914
C          6.14053        31.93519         0.66515
C          4.89003        31.25047         0.45827
C          6.10441        33.36921         0.97442
C          4.88450        34.13585         0.72324
C          6.18409        36.27199         0.92873
C          4.92879        35.56533         0.81212
C          6.19209        37.71123         0.95433
C          4.95346        38.40572         1.00065
C          8.63676         3.50780         0.58847
C          7.41136         4.11776         0.33192
C          8.60642         6.23191        -0.00702
C          7.38253         5.42974        -0.45661
C          8.57211         7.71673         0.13400
C          7.31991         8.42553        -0.20500
C          8.59458        10.52761        -0.57694
C          7.34560         9.84222        -0.41051
C          8.58144        11.93704        -0.88087
C          7.33478        12.62392        -0.90748
C          8.59928        14.76323        -0.91933
C          7.33900        14.06639        -1.31155
C          8.57563        16.18370        -0.45811
C          7.30830        16.92469        -0.82541
C          8.58620        19.11573        -0.51930
C          7.35190        18.42106        -1.05648
C          8.60842        20.45826        -0.22384
C          7.32078        21.15711         0.14776
C          8.60876        23.33082         0.17023
C          7.34218        22.65660         0.01968
C          8.63504        24.75569         0.25871
C          7.34843        25.47510         0.58323
C          8.57347        27.67567         0.18789
C          7.35182        26.95539         0.30372
C          8.60850        29.07080         0.15420
C          7.42960        29.82552         0.54774
C          8.60535        32.02173         0.42752
C          7.37648        31.29541         0.51327
C          8.65898        33.39979         0.65744
C          7.43955        34.12478         1.03651
C          8.64784        36.27580         0.78451
C          7.41792        35.58740         0.89257
C          8.65580        37.71446         0.83209
C          7.42502        38.39997         0.94234
C         11.09588         3.54089         0.75483
C          9.90533         4.14227         0.40056
C         11.13589         6.35006         0.21658
C          9.94007         5.52727        -0.21389
C         11.10992         7.74997         0.10428
C          9.84124         8.53531         0.33932
C         11.06110        10.53231        -0.55056
C          9.83997         9.87269        -0.35741
C         11.03920        11.81166        -1.35922
C          9.79689        12.63662        -1.09760
C         11.03633        14.83022        -1.14853
C          9.81313        14.07582        -1.06519
C         11.02353        16.24591        -1.06160
C          9.83073        16.92452        -0.83308
C         11.14295        19.08337        -0.34202
C          9.82218        18.33703        -0.43995
C         11.09676        20.54124        -0.28372
C          9.85696        21.19350        -0.07692
C         11.12360        23.32930         0.40369
C          9.82821        22.60856         0.10427
C         11.09754        24.80382         0.09325
C          9.85037        25.46151         0.12034
C         11.11826        27.66843        -0.24853
C          9.80485        26.91583        -0.14374
C         11.12260        29.13080        -0.12552
C          9.82706        29.81530        -0.22254
C         11.11637        32.00717         0.15511
C          9.82440        31.33378        -0.03547
C         11.11082        33.41722         0.35750
C          9.88024        34.12862         0.52506
C         11.11222        36.26127         0.60545
C          9.88118        35.55293         0.65337
C         11.11687        37.70024         0.68646
C          9.89748        38.39809         0.78662
C         13.56700         3.61697         0.99596
C         12.35463         4.25036         0.69649
C         13.63698         6.39328         0.28275
C         12.34082         5.65911         0.43823
C         13.52163         7.87678         0.44960
C         12.32869         8.51517         0.17146
C         13.53570        10.62621        -0.29909
C         12.30369         9.93694        -0.17513
C         13.57933        11.98015        -0.80055
C         12.33818        12.61653        -1.29554
C         13.56704        14.86354        -1.04864
C         12.31580        14.12497        -1.31545
C         13.56935        16.26846        -1.12159
C         12.28490        17.01838        -1.40970
C         13.51786        19.14177        -0.96007
C         12.35470        18.42517        -0.85197
C         13.55151        20.55903        -0.66478
C         12.33888        21.25664        -0.37850
C         13.58261        23.35051        -0.13085
C         12.35755        22.65088        -0.13693
C         13.59049        24.80043         0.04215
C         12.33913        25.51059         0.02438
C         13.57534        27.66957         0.05833
C         12.37054        26.93459        -0.04008
C         13.57060        29.10689         0.05275
C         12.31988        29.83111        -0.01199
C         13.56650        31.98032         0.17322
C         12.32291        31.28196         0.08875
C         13.57061        33.40476         0.27395
C         12.34593        34.12331         0.37625
C         13.57599        36.25688         0.46822
C         12.34317        35.55118         0.48751
C         13.57500        37.69270         0.55318
C         12.36293        38.38499         0.65403
C         16.01042         3.67597         1.43491
C         14.80149         4.34061         1.12888
C         15.98649         6.50470         1.18219
C         14.81191         5.75264         0.95678
C         16.00335         7.93961         0.93728
C         14.69462         8.69513         0.89444
C         15.97011        10.68648         0.08965
C         14.76264        10.02575         0.17935
C         16.06589        11.96157        -0.71464
C         14.76367        12.71263        -0.78979
C         16.01083        14.87372        -0.88706
C         14.78473        14.14758        -0.93930
C         16.01007        16.28555        -0.99907
C         14.77999        16.97895        -1.12709
C         16.04301        19.16763        -1.11938
C         14.76145        18.45543        -1.48320
C         16.04186        20.52806        -0.83555
C         14.79127        21.25785        -0.63286
C         16.08039        23.30329         0.08181
C         14.79384        22.63807        -0.32924
C         16.06473        24.81700         0.00727
C         14.80757        25.51595         0.07905
C         16.03764        27.67348         0.22272
C         14.82189        26.95747         0.13628
C         16.03888        29.11608         0.22152
C         14.79521        29.82377         0.12869
C         16.03564        31.96975         0.18387
C         14.80034        31.25960         0.15487
C         16.04112        33.40679         0.22264
C         14.80956        34.11743         0.28840
C         16.04514        36.24954         0.38062
C         14.80586        35.54252         0.36986
C         16.02908        37.70006         0.41919
C         14.82871        38.38320         0.50588
C         18.47904         3.73815         1.74933
C         17.21782         4.39530         1.55360
C         18.41783         6.57332         1.73690
C         17.18822         5.81742         1.47564
C         18.41531         8.07060         1.49185
C         17.18369         8.64859         0.90885
C         18.42666        10.67179         0.27661
C         17.21654        10.03530         0.45169
C         18.45714        12.17975         0.26765
C         17.25203        12.81473        -0.37325
C         18.50885        14.91028        -0.63822
C         17.25656        14.16682        -0.63317
C         18.51343        16.28417        -0.91297
C         17.26822        17.02127        -1.04799
C         18.54591        19.15658        -1.44980
C         17.26614        18.41144        -1.16916
C         18.54630        20.58689        -0.96757
C         17.30463        21.26375        -0.74665
C         18.54755        23.38079        -0.54994
C         17.29555        22.63595        -0.50240
C         18.54378        24.84289        -0.22668
C         17.25178        25.52293         0.06108
C         18.51682        27.63847         0.27452
C         17.28790        26.95533         0.21422
C         18.53814        29.11480         0.59508
C         17.25417        29.83899         0.28126
C         18.52056        31.98581         0.15729
C         17.26790        31.25152         0.21433
C         18.52253        33.40362         0.14895
C         17.27098        34.12785         0.23951
C         18.55765        36.28742         0.55285
C         17.26176        35.54122         0.32451
C         18.47531        37.75078         0.17550
C         17.27638        38.40990         0.25555
C         19.67379         4.44882         1.78538
C         20.91098         6.61208         1.64807
C         19.69866         5.85487         1.74662
C         20.94090         7.96153         1.45506
C         19.72563         8.85897         1.43941
C         20.93591        10.66618         0.10348
C         19.68899         9.83905         0.23438
C         20.94091        12.00330        -0.12678
C         19.74667        12.80323        -0.19342
C         20.98117        14.88890        -0.70280
C         19.75119        14.16803        -0.50516
C         20.99018        16.23788        -0.88520
C         19.77289        17.00069        -0.97574
C         21.01530        19.14319        -1.03354
C         19.79838        18.39338        -1.09576
C         21.01571        20.50686        -0.93935
C         19.78807        21.26540        -0.83642
C         21.02436        23.42521        -0.44062
C         19.81881        22.65643        -0.57778
C         21.03372        24.73184        -0.05657
C         19.78722        25.44775         0.39071
C         20.94112        27.67994         0.01748
C         19.77496        26.95507         0.19757
C         20.92083        29.09515        -0.12113
C         19.77284        29.82690         0.09046
C         20.94674        32.00666        -0.12964
C         19.75590        31.27636         0.03315
C         20.94409        33.39657        -0.15347
C         19.75092        34.12228        -0.00553
C         20.84263        36.31017        -0.43653
C         19.76008        35.57733        -0.01936
C         20.82978        37.74473        -0.45072
C         19.69023        38.44347        -0.16511
O          6.77422        33.67323         2.25735
O          6.74218        29.33386         1.74041
O         18.61656        24.50789        -1.63516
O          9.67169        30.71676        -1.37152
O         10.35634        27.23951        -1.46118
O         18.21755         7.55876         2.85016
O          3.82260        28.52213        -1.56462
O          8.40661         6.80556         1.30703
O         12.49835        13.33626        -2.57801
O         10.53634        18.47263         0.87570
O          7.25505        25.38247         2.06528
H          6.49698        25.93969         2.34464
O         11.27043        23.24319         1.88319
H         11.28065        22.28926         2.11478
O         13.94783         6.23428        -1.18137
H         13.09200         6.28079        -1.66330
O         19.79468         9.67584         2.62789
H         19.44949         9.12593         3.36695
O         18.64540        29.18008         2.07590
H         19.46249        28.69665         2.32333
O         12.24249        17.18582        -2.87652
H         12.19820        16.28760        -3.27130
O         19.60909         8.97735        -0.93919
H         19.48582         9.54725        -1.72733
O         19.65479        25.22236         1.83173
H         20.47483        25.53882         2.26461
O         18.76046        36.27104         2.01429
H         18.00268        36.74710         2.41622
O          5.00585        22.77769        -2.04863
H          5.03720        23.73123        -2.27900
O         18.34702        12.53577         1.70697
H         18.53616        13.49553         1.78505
O         16.18143        23.01735         1.53706
H         15.40044        23.42724         1.96799
O          7.37953        14.04835        -2.80659
H          8.13026        13.46811        -3.06167
O          7.60149         5.05118        -1.83592
H          6.72637         5.07883        -2.29211
O          7.42645        18.55970        -2.51756
H          6.63503        18.09801        -2.88910
O          4.82728        17.11573        -2.78152
H          3.99524        17.57478        -3.02644
O          2.48434        35.82958        -1.25135
H          1.64468        35.44747        -1.58754
O         18.58802        19.26591        -2.93010
H         19.38037        19.79866        -3.15651
O         10.91233        11.33982        -2.74743
H         11.30746        12.04884        -3.30840
O         14.69588        18.51045        -2.94212
H         13.83329        18.09717        -3.20205
O         14.41858         8.99827         2.31393
H         15.18480         9.50481         2.65960
O         16.33437        11.50881        -2.10563
H         15.49817        11.12911        -2.45288
O         10.18307         5.38010        -1.64311
H          9.35606         5.01502        -2.04591
O          7.23340        20.93574         1.61137
H          7.93021        21.48205         2.03475
O          8.58774        16.12598         1.02822
H          9.14638        16.86767         1.35465
O          5.56378         6.15390         1.99252
H          4.97474         5.81170         2.69618
O          9.89668         8.86198         1.76423
H          9.54391         8.07511         2.24231
O          5.35585         5.97295        -1.63985
H          4.51757         6.48366        -1.64944
O          0.97472        11.79079        -2.40266
H          0.98322        12.69832        -2.77510
O          2.31357        21.08538         1.44658
H          1.46371        21.47957         1.73843
H          1.37326         2.52845         1.71337
H         -0.79976         3.73972         1.63855
H         -0.90379         6.11455         0.99197
H         -0.96474         7.93852         0.36501
H         -1.00070        10.26680        -0.34427
H         -1.02949        12.18063        -0.27511
H         -0.98860        14.59032        -0.15953
H         -1.05222        16.44428        -0.73423
H         -1.05511        18.86764        -0.73504
H         -1.03461        20.78623        -0.74706
H         -1.02570        23.18371        -0.45371
H         -1.02061        25.09823        -0.38760
H         -0.99224        27.51849        -0.36173
H         -0.98758        29.41358        -0.20739
H         -0.98236        31.81777         0.09892
H         -0.97321        33.71816         0.48953
H         -0.92501        36.13600         0.90120
H          0.33279        38.28036         1.09294
H          3.76260         2.47016         1.25901
H          2.48395        39.50554         1.11242
H          6.21947         2.42652         1.00196
H          4.95453        39.50207         1.09401
H          8.63165         2.51544         1.06924
H          7.42501        39.49931         0.98915
H         11.09490         2.51058         1.14374
H          9.90771        39.49713         0.83521
H         13.57356         2.53384         1.18965
H         12.37070        39.48369         0.71244
H         16.01749         2.58104         1.53837
H         14.82955        39.48340         0.52513
H         18.49687         2.64054         1.80795
H         17.23832        39.49985         0.10268
H         20.62731         3.90252         1.83964
H         21.86142         6.05692         1.68946
H         21.92018         8.46093         1.40951
H         21.89499        10.12735         0.10218
H         21.91327        12.49170        -0.28812
H         21.93866        14.35376        -0.66022
H         21.95745        16.74545        -0.99237
H         21.98164        18.62128        -1.00844
H         21.97739        21.03169        -0.87297
H         21.98935        22.94216        -0.65231
H         22.00522        25.23477         0.05735
H         21.90785        27.16961        -0.08531
H         21.86049        29.58911        -0.40342
H         21.90874        31.48554        -0.22100
H         21.90171        33.92364        -0.25920
H         21.74708        35.80799        -0.80858
H         21.74277        38.27548        -0.75494
H         19.66357        39.53880        -0.26491
