         276
 CSIRO Nanostructure Databank - Neutral Graphene Oxide Data Set
C        -11.15840         0.77663        -0.37111
C         -9.99310         1.53935         0.03140
C         -8.66582         0.86166         0.00436
C         -7.69824         1.35865         1.08821
C         -6.27113         0.68770         1.31146
C         -4.98182         1.44541         1.01444
C         -3.75950         0.75693         0.85101
C         -2.47939         1.42639         1.28046
C         -1.16948         0.70280         0.96532
C          0.08667         1.51556         1.23950
C          1.40715         0.80679         0.81349
C          2.21906         1.42605        -0.37510
C          3.55671         0.66919        -0.69395
C          4.88417         1.43168        -0.42956
C          5.93627         0.62477         0.35234
C          7.25337         1.36508         0.61601
C          8.51463         0.58385         0.65339
C          9.76621         1.27269         1.19037
C         11.01457         0.61006         0.63960
C        -10.00582         2.89107         0.24790
C         -8.79026         3.64348         0.53951
C         -7.59901         2.89304         1.06103
C         -6.27613         3.61357         1.11630
C         -4.99093         2.86437         1.04224
C         -3.74715         3.57232         0.89538
C         -2.54268         2.90717         0.99783
C         -1.29202         3.63048         0.70279
C         -0.01943         2.87940         0.56432
C          1.22202         3.70416         0.30269
C          2.39359         2.98366        -0.30905
C          3.72857         3.77010        -0.59687
C          4.99772         2.92657        -0.47419
C          6.31665         3.68327        -0.20575
C          7.35878         2.85236         0.52613
C          8.69112         3.51975         0.62774
C          9.80231         2.76030         0.92032
C         -8.74968         4.98462         0.31352
C         -7.56247         5.88756         0.56568
C         -6.26913         5.10526         0.87251
C         -4.97873         5.78452         0.61481
C         -3.71496         4.98529         0.30713
C         -2.54428         5.82205         0.86783
C         -1.23768         5.09635         1.02134
C          0.06271         5.83738         1.18170
C          1.39509         5.05172         1.02510
C          2.48473         5.85354         0.28125
C          3.81773         5.04537         0.30645
C          5.03709         5.88225         0.04111
C          6.17330         5.02443         0.52113
C          7.51415         5.72983         0.53650
C          8.70141         4.94319         0.57249
C         -7.39109         6.91936        -0.54312
C         -6.05021         7.21458        -1.12973
C         -4.99791         7.14067        -0.02832
C         -3.75649         7.96576        -0.04127
C         -2.55645         7.31046         0.62104
C         -1.26122         7.98879         0.68651
C          0.01988         7.34663         0.99019
C          1.29985         8.10009         0.61243
C          2.58112         7.29293         0.76268
C          3.85593         8.01129         0.55092
C          5.06995         7.21298         0.26613
C          6.34676         7.97529         0.51120
C          7.56759         7.10400         0.38844
C         -5.89239         8.46612        -1.95620
C         -4.77920         9.21722        -1.98129
C         -3.59720         9.15144        -1.02240
C         -2.25225         9.17039        -1.73523
C         -1.09462         9.34923        -1.02365
C          0.28015         9.49261        -1.34299
C          1.36515         9.17997        -0.44867
C          2.60332         9.75703        -0.67249
C          3.82819         9.49355         0.19080
C          5.12498         9.88952        -0.49979
C          6.28013         9.22193        -0.35144
C        -11.13070        -0.56409        -0.62180
C         -9.91624        -1.35388        -0.46812
C         -8.64953        -0.58590        -0.42338
C         -7.43077        -1.32219        -0.17279
C         -6.19353        -0.66770        -0.13717
C         -4.87187        -1.29101        -0.23086
C         -3.64908        -0.58104         0.27046
C         -2.32569        -1.33568         0.33132
C         -1.12150        -0.65577         0.89236
C          0.15402        -1.46334         1.22861
C          1.43128        -0.68666         0.90053
C          2.57567        -1.44010         0.31493
C          3.63526        -0.75407        -0.18275
C          4.90726        -1.44959        -0.41330
C          6.09158        -0.74835        -0.24847
C          7.44486        -1.34439        -0.53148
C          8.55892        -0.71394         0.27200
C          9.79704        -1.52139         0.61923
C         11.03090        -0.69232         0.33691
C         -9.93015        -2.69006        -0.16972
C         -8.72166        -3.45901         0.36856
C         -7.45232        -2.77937        -0.10219
C         -6.16584        -3.50690        -0.33723
C         -4.79898        -2.77240        -0.63055
C         -3.59540        -3.46327         0.00662
C         -2.42770        -2.81881         0.28672
C         -1.17018        -3.54395         0.66442
C          0.12935        -2.78362         0.40779
C          1.37767        -3.64824         0.55214
C          2.70919        -2.90976         0.70324
C          3.80431        -3.63848        -0.13460
C          4.91248        -2.87011        -0.55775
C          6.20265        -3.52316        -1.00575
C          7.43338        -2.84798        -0.46824
C          8.63691        -3.55631        -0.33604
C          9.81146        -2.89849         0.02562
C         -8.68191        -4.93513         0.03921
C         -7.49381        -5.66262         0.06553
C         -6.20159        -4.91041         0.20854
C         -4.91446        -5.65124         0.32792
C         -3.63625        -4.95438        -0.04647
C         -2.38677        -5.74098         0.18092
C         -1.14734        -5.03194         0.62290
C          0.14343        -5.80288         0.58990
C          1.39541        -5.00345         0.55154
C          2.73849        -5.74185         0.66440
C          3.77783        -5.02604        -0.20597
C          4.83724        -5.65678        -1.14687
C          6.17962        -5.02562        -0.65770
C          7.46438        -5.73635        -1.13715
C          8.69832        -5.06795        -0.49462
C         -7.46048        -7.07422        -0.08309
C         -6.27139        -7.87709         0.15572
C         -4.96429        -7.15305         0.41258
C         -3.71427        -7.91578        -0.04646
C         -2.52098        -7.19140         0.54407
C         -1.10104        -7.93772        -0.39590
C          0.10849        -7.25511         0.24924
C          1.37988        -7.94817        -0.11135
C          2.66134        -7.20940         0.25709
C          3.81111        -8.06911         0.54687
C          5.03218        -7.20536        -1.36164
C          6.23738        -7.90210        -0.78106
C          7.39899        -7.19936        -0.74762
C         -6.14510        -9.29385        -0.28378
C         -4.99350        -9.99576        -0.22641
C         -3.72904        -9.40561         0.38752
C         -2.40004       -10.07214         0.02649
C         -1.22431        -9.43313        -0.15940
C          0.07603       -10.19500        -0.44695
C          1.36926        -9.42114        -0.18038
C          2.58787       -10.05789        -0.22503
C          3.82628        -9.39418         0.08125
C          5.11427       -10.04162        -0.10363
C          6.21610        -9.33672        -0.47981
O          7.03756         2.23011         1.80957
O         -4.86466         8.24525         0.89123
O          1.40909         3.66643        -1.14603
O          3.07943        -3.03371         2.04085
O          2.18511        -7.29988        -1.13664
O          4.42962        -7.70315        -2.30252
O         -5.49209         5.75135         1.96043
O         -5.44837        -0.26856        -1.24723
O         -2.85436        -5.47064        -1.16973
O         -3.57996         4.87843        -1.06621
O         -7.07408         3.35479         2.33086
O          0.72951         8.28316         1.91614
O         -8.32950         0.54825        -1.35989
O          0.10862        -6.86153         1.65213
O          2.01587         0.17894         1.95636
O          3.46350         0.53407        -2.18584
O          3.36732         7.67107         1.91358
O         -1.25026         9.30683         0.46485
O         -1.22563        -7.58032        -1.65172
O         -6.19234        -0.04168         2.33976
O          5.28333         2.09468        -1.66561
O         -5.66550        -7.64392         1.54743
O          0.05274         1.75024         2.63306
O         -2.69969        -0.62550        -0.88208
O          4.15060         4.55679         1.66137
O         -0.65692         5.34718         2.34497
O         -7.07186        -3.31227        -1.45390
O          5.64743         4.73452         1.86502
O         -5.52507        -5.00423         1.49558
O         -2.84859         6.70488         1.94922
O         -1.29176        -4.31028         1.89576
O         -0.87525         3.07734        -0.60672
O          0.11366        -1.76880         2.61798
H          0.61807        -1.06968         3.09229
O         -8.43895         1.03236         2.28119
H         -7.79991         0.58617         2.89457
O          6.88670         4.02101        -1.48632
H          6.71765         3.27027        -2.09937
O          8.83672        -5.61860         0.83133
H          9.46095        -5.05777         1.33935
O          4.49861        -5.20947        -2.47818
H          4.03085        -5.97849        -2.89972
O          4.78297        -7.61905         1.36371
H          4.52581        -6.73313         1.74567
O         -3.83851        -9.56793         1.81286
H         -4.59607        -9.01390         2.12336
O          3.69783        10.27746         1.39566
H          3.41211         9.66549         2.11306
O         -3.77696        -7.87113        -1.46829
H         -2.86078        -7.74839        -1.85233
O          3.68272         4.21094        -1.96226
H          3.84940         3.42578        -2.53065
O          5.30779         0.38702         1.63582
H          5.55739         1.12426         2.24077
O         -5.73260         6.06169        -1.98218
H         -6.22639         6.14725        -2.82459
O          6.25375        -3.28631        -2.44586
H          5.49073        -3.77266        -2.84898
O          4.56495        -0.26909        -2.66003
H          5.26519         0.40306        -2.85655
O          2.06446         6.11112        -1.07098
H          2.18298         5.29678        -1.62637
O          0.09938        -2.34836        -0.97023
H         -0.00706        -3.11975        -1.56516
O         -2.38293        -7.44554         1.88133
H         -1.62251        -6.93198         2.25534
O         -2.52173         1.36832         2.74658
H         -1.56277         1.54901         3.03934
O          9.77599         1.09008         2.64329
H          8.95194         1.50727         2.98258
O          0.09068       -11.44604         0.23366
H          0.10068       -11.27816         1.19800
O          1.33662         1.15644        -1.47587
H          0.87763         1.99333        -1.72889
O          1.86029         4.77641         2.34256
H          1.08959         4.51826         2.89882
O         -3.68097        10.35480        -0.22762
H         -4.37128        10.20434         0.45600
O         -8.76279        -3.32475         1.81733
H         -9.50472        -3.86412         2.16119
O          3.18689        -5.66674         2.03299
H          3.19573        -4.67847         2.28025
O          6.13375        -5.14502         0.77965
H          7.04511        -5.33399         1.11811
O          7.72856        -0.99767        -1.94091
H          7.24584        -1.66784        -2.48914
O         -7.87834         6.70828         1.71887
H         -7.02572         6.84090         2.20497
O          6.31432         8.41212         1.90238
H          6.00170         7.66107         2.45106
O          9.76006        -1.73485         2.07049
H          9.82200        -0.84224         2.49698
O         -4.57670        -2.88625        -2.03768
H         -5.38569        -2.56026        -2.49152
O          7.60595        -5.61860        -2.56283
H          6.81021        -6.00002        -2.99013
H         11.93935        -1.17918        -0.04874
H         11.90953         1.23516         0.49927
H         10.76496         3.26820         1.08897
H          9.67008         5.46395         0.61583
H          8.55166         7.59726         0.35636
H          7.19610         9.57932        -0.84713
H          5.10202        10.80782        -1.10765
H          2.67348        10.54876        -1.43553
H          0.53889        10.09061        -2.23067
H         -2.21312         9.10065        -2.82983
H         -4.75026        10.07418        -2.67327
H         -6.70620         8.69754        -2.66341
H         -8.23454         7.61023        -0.70193
H         -9.66210         5.48266        -0.05074
H        -10.94336         3.45728         0.13597
H        -12.11460         1.31651        -0.44416
H        -12.06554        -1.09121        -0.86309
H        -10.90519        -3.20250        -0.12018
H         -9.63687        -5.47812        -0.04242
H         -8.38282        -7.58929        -0.39176
H         -7.05054        -9.76333        -0.69949
H         -4.98529       -11.04275        -0.56708
H         -2.38293       -11.17360         0.09411
H          0.05998       -10.43270        -1.54811
H          2.62189       -11.14016        -0.41962
H          5.17942       -11.13693        -0.01029
H          7.18139        -9.85954        -0.56443
H          8.32868        -7.70071        -0.43746
H          9.60874        -5.33547        -1.10045
H         10.75380        -3.46715         0.07420
