         324
 CSIRO Nanostructure Databank - Neutral Graphene Oxide Data Set
C          1.43031         3.67176        -2.11835
C          0.25148         3.71780        -1.41457
C          1.10110         5.56013        -0.08862
C          0.10310         4.63103        -0.34453
C          1.00772         7.76125         0.97778
C         -0.11097         8.48480         1.27175
C          1.08940        10.62667         1.25479
C         -0.07276         9.91557         1.36382
C          1.09316        12.11287         1.33757
C         -0.14162        12.87207         1.08753
C          1.09891        14.98667         0.82770
C         -0.12406        14.21810         0.93272
C          1.05002        16.40158         0.76041
C         -0.11183        17.16383         1.07582
C          1.09018        19.28918         0.77765
C         -0.11099        18.53976         1.03616
C          1.08326        20.75047         0.68292
C         -0.08348        21.46819         0.45335
C          1.08585        23.62010         0.35352
C         -0.06967        22.86425         0.21237
C          1.15767        25.02920         0.02100
C         -0.01880        25.76837        -0.23215
C          1.25800        27.66420        -1.06475
C          0.02605        27.05561        -0.75066
C          1.30657        28.94108        -1.72731
C          3.78259         4.06994        -2.30371
C          2.54586         4.52528        -1.80320
C          3.22976         6.70240        -0.75987
C          2.31012         5.62395        -0.85530
C          3.44014         7.79453         0.11900
C          2.34637         8.39071         0.91108
C          3.59817        10.65599         0.69324
C          2.38886         9.92279         1.13454
C          3.61500        12.07460         0.75014
C          2.40081        12.85176         1.10765
C          3.56074        14.96457         0.49648
C          2.34953        14.29380         0.75241
C          3.56528        16.40973         0.17669
C          2.24830        17.15414         0.37026
C          3.55933        19.33659         0.27449
C          2.27532        18.60623         0.57164
C          3.54892        20.76773         0.76290
C          2.34409        21.45023         0.77633
C          3.63486        23.66556         0.69216
C          2.30364        22.93092         0.82574
C          3.65599        24.99459         0.06664
C          2.42957        25.67179        -0.18478
C          3.72882        27.60225        -1.04630
C          2.46997        26.98376        -0.75584
C          3.75203        28.86603        -1.76541
C          2.49472        29.49473        -2.09840
C          6.23208         3.73002        -1.88910
C          5.08932         4.50938        -1.89644
C          6.15889         6.36403        -0.59011
C          5.18402         5.86006        -1.39304
C          6.01065         7.72694        -0.01130
C          4.70145         8.49692         0.06018
C          5.99976        10.63339         0.02623
C          4.75302         9.88427         0.34796
C          6.03780        12.13193         0.14695
C          4.79390        12.83342         0.53183
C          6.06003        14.94832         0.21557
C          4.78733        14.23915         0.50711
C          6.09588        16.44884         0.17853
C          4.82245        17.19125         0.38833
C          6.02238        19.22353         1.17874
C          4.79819        18.52983         0.62226
C          5.99836        20.72126         1.03100
C          4.81987        21.45452         0.89489
C          6.09013        23.55339         0.50334
C          4.87732        22.88463         0.71829
C          6.13973        24.87979        -0.01923
C          4.90069        25.58122        -0.26473
C          6.21967        27.57016        -0.98019
C          4.92446        26.91418        -0.77508
C          6.22790        28.89870        -1.73779
C          4.94372        29.40224        -2.21463
C          8.76494         3.71964        -1.64321
C          7.45505         4.22077        -1.23093
C          8.69625         6.33675        -0.44811
C          7.42584         5.58275        -0.50091
C          8.65198         7.71642         0.07060
C          7.32258         8.43387         0.22354
C          8.60967        10.68976         0.04742
C          7.31621         9.90525        -0.04190
C          8.57352        12.12037         0.34934
C          7.33305        12.84140         0.34605
C          8.61847        14.95915         0.48812
C          7.32819        14.22306         0.40527
C          8.69940        16.45221         0.39998
C          7.39869        17.20908         0.27294
C          8.59694        19.29484         1.17942
C          7.34817        18.63492         0.68235
C          8.52690        20.68586         1.32208
C          7.25944        21.40795         1.27858
C          8.64704        23.47373         0.56699
C          7.33375        22.91794         0.95539
C          8.64601        24.74887        -0.12754
C          7.40878        25.46344        -0.34642
C          8.68560        27.35487        -1.29298
C          7.46004        26.76745        -0.91051
C          8.73839        28.63605        -1.96286
C          7.48724        29.31804        -2.46872
C         11.20103         3.79347        -1.68511
C          9.94253         4.40441        -1.37713
C         11.11144         6.57757        -0.92315
C          9.90249         5.77395        -0.84755
C         11.14250         7.91134        -0.54197
C          9.93616         8.52150         0.04823
C         11.06818        10.72047         0.18872
C          9.88677         9.98861         0.17030
C         11.02312        12.14221         0.41253
C          9.79898        12.78534         0.58513
C         11.03723        14.92743         1.23573
C          9.72880        14.17658         1.17151
C         10.92478        16.33508         1.77229
C          9.99011        17.19579         0.83542
C         10.95343        19.26443         2.03040
C          9.77124        18.57605         1.44132
C         10.97781        20.78879         2.04210
C          9.72364        21.49539         1.62946
C         11.13533        23.28929         0.54137
C          9.80052        22.82014         0.95857
C         11.13862        24.62520        -0.24838
C          9.87029        25.35150        -0.45558
C         11.15904        27.30551        -1.26661
C          9.91365        26.66913        -1.01224
C         11.19241        28.60165        -1.87941
C          9.94901        29.21246        -2.25640
C         13.65550         3.92258        -1.94268
C         12.40406         4.51181        -1.69227
C         13.60970         6.77357        -1.51557
C         12.31524         5.98154        -1.54251
C         13.60097         8.13574        -0.96100
C         12.34113         8.73267        -0.60731
C         13.51104        10.89028        -0.16656
C         12.30530        10.05770        -0.14957
C         13.47874        12.10084         0.73819
C         12.28754        12.96699         0.32716
C         13.49709        14.90641         1.43701
C         12.23752        14.28453         1.08144
C         13.46542        16.32319         1.78707
C         12.27499        17.02553         1.84628
C         13.55836        19.24101         2.02537
C         12.25720        18.48401         2.15060
C         13.58694        20.76013         1.91317
C         12.30226        21.60618         2.12727
C         13.57814        23.69634         1.34224
C         12.34013        22.82385         1.22462
C         13.51498        24.94316         0.45289
C         12.37692        25.40822        -0.23063
C         13.60633        27.42038        -0.97826
C         12.38488        26.71004        -0.81831
C         13.63452        28.68825        -1.65504
C         12.40923        29.25719        -2.09615
C         16.13153         3.98859        -2.00535
C         14.88507         4.64823        -1.86642
C         16.08608         6.73318        -1.30147
C         14.88316         6.04433        -1.56290
C         16.07441         8.12447        -0.91949
C         14.81873         8.79642        -0.78016
C         16.06385        10.86926         0.00790
C         14.83114        10.22903        -0.46689
C         16.00278        12.19314         0.55436
C         14.77895        12.86397         0.81005
C         15.96479        14.77628         1.89029
C         14.71562        14.18671         1.33869
C         15.98928        16.30716         2.11612
C         14.73477        17.05534         1.83855
C         16.00608        19.12064         1.33882
C         14.75566        18.41856         1.69476
C         15.98171        20.59585         1.11854
C         14.77637        21.45266         1.33229
C         16.12398        23.41783         0.70415
C         14.86337        22.82300         1.11559
C         16.40134        24.78685         0.74722
C         14.59624        25.82862         0.50290
C         16.09398        27.45957        -0.70802
C         14.80161        26.90268        -0.40204
C         16.09038        28.71756        -1.41091
C         14.87055        29.33346        -1.80608
C         18.61137         4.01686        -1.98337
C         17.34354         4.67358        -1.81983
C         18.55088         6.76059        -1.22808
C         17.33147         6.05468        -1.44239
C         18.53763         8.13675        -0.82720
C         17.28526         8.81617        -0.65636
C         18.52172        10.83862         0.12965
C         17.27525        10.17783        -0.16564
C         18.49919        12.15466         0.69213
C         17.24946        12.81629         0.92695
C         18.43739        14.43436         2.24115
C         17.21988        14.01121         1.67719
C         18.42257        16.57510         2.65984
C         17.26450        17.08446         2.12635
C         18.50602        19.08573         1.43442
C         17.30567        18.43827         1.59747
C         18.57198        20.51251         1.04258
C         17.30335        21.29050         1.01981
C         18.61921        23.20574         0.22655
C         17.24754        22.54303         0.17521
C         18.70188        24.69536        -0.02005
C         17.44121        25.44632         0.01544
C         18.57106        27.34400        -1.04321
C         17.34914        26.76133        -0.52249
C         18.54232        28.67566        -1.57312
C         17.30911        29.34121        -1.73874
C         19.78412         4.69526        -1.78849
C         20.99558         6.78205        -1.19343
C         19.78876         6.07724        -1.40529
C         20.98228         8.10986        -0.80026
C         19.76881         8.81540        -0.59863
C         20.96004        10.91280         0.09718
C         19.75582        10.19038        -0.13114
C         20.95160        12.17741         0.64350
C         19.73197        12.80787         1.01692
C         20.87510        14.82092         2.09413
C         19.69637        14.02320         1.77721
C         20.91167        16.15083         2.38319
C         19.78504        17.11300         2.46180
C         20.95609        18.94433         0.94517
C         19.81672        18.47089         1.75362
C         20.90278        20.12887         0.26205
C         19.77430        21.01257         0.33125
C         20.94470        23.01825        -0.60381
C         19.80416        22.36116        -0.09146
C         20.97466        24.39227        -0.89315
C         19.89031        25.24857        -0.66355
C         20.98227        27.29331        -1.53194
C         19.82259        26.63498        -1.07441
C         20.94614        28.62315        -1.96829
C         19.74275        29.30615        -2.00584
O         15.56499        25.62403         1.48559
O          8.98717        15.62116        -0.77881
O          8.00487        10.22882        -1.27272
O         14.11970        11.06668        -1.46734
O          2.70876         8.96984         2.20062
O          1.89098        12.60075         2.47208
O          7.22673        22.45298         2.32497
O         13.91945        20.07904         3.18121
O          2.77677        16.77842        -0.99561
O          7.36012         4.35165         0.25739
O         20.08571        18.33642         3.19797
O          6.01342        15.68292        -1.07049
O          0.86507         6.37309         1.01476
O          9.41215        13.98437         2.54398
O          2.91155        23.58358         1.98263
O          6.35545        28.87094        -0.28668
O         18.40099        15.34113         3.31008
O         15.79681        15.36823         3.21448
O         11.45013        18.77520         3.32877
O          5.85522        11.48675        -1.16317
O         15.85772        19.68295        -0.05264
O         11.24757        23.34843        -0.95645
O         18.12517        21.38647         2.19476
O          9.46336         7.86137         1.28829
O         18.89712        24.07995         1.33651
O          4.16552         6.71978        -1.81381
O         12.78857         6.67387        -2.74601
O         10.07486        21.34939         3.05433
O          7.42410        18.29268        -0.72977
O          6.59687         7.90161         1.35123
O         10.33716        16.32669         3.07980
H          9.93186        15.41275         3.21289
O          7.33070        29.03146        -3.87357
H          7.46861        28.07263        -4.01571
O         10.75017        17.47186        -0.37050
H         10.28541        17.04033        -1.12409
O          5.97999        18.94106         2.61627
H          6.46891        19.64798         3.09082
O         12.38849        22.06426         3.50201
H         12.60289        21.27489         4.05294
O         12.48520        13.31838        -1.06733
H         11.69084        13.79712        -1.38416
O         13.23223        11.58571         2.07043
H         13.07896        12.34210         2.67633
O         13.66130        24.21702         2.68939
H         13.33885        23.51459         3.31156
O         17.01681        22.16038        -1.20000
H         16.36879        21.42082        -1.21451
O          3.61663        19.45711        -1.19376
H          3.44716        18.55073        -1.55344
H          1.56889         2.90971        -2.89849
H         -0.56481         3.02257        -1.65256
H         -0.80723         4.63401         0.26742
H         -1.06916         7.96721         1.40421
H         -1.02710        10.43581         1.52014
H         -1.09887        12.33627         1.02454
H         -1.07874        14.74174         0.78535
H         -1.03931        16.64479         1.35374
H         -1.03946        19.08038         1.26494
H         -1.04210        20.93884         0.36444
H         -1.00848        23.33894        -0.10442
H         -0.99902        25.31483        -0.03189
H         -0.90936        27.59545        -0.95638
H          0.35834        29.44615        -1.96209
H          3.74473         3.12744        -2.87427
H          2.51941        30.45510        -2.63336
H          6.23554         2.72760        -2.34192
H          4.93801        30.23220        -2.93641
H          8.81018         2.77053        -2.19909
H          7.60669        30.42863        -2.38633
H         11.21194         2.72248        -1.93845
H          9.97729        30.18039        -2.77877
H         13.70185         2.83799        -2.12453
H         12.41604        30.24572        -2.57824
H         16.14812         2.91792        -2.25753
H         14.91324        30.31162        -2.30782
H         18.62348         2.95617        -2.27324
H         17.29524        30.33218        -2.21605
H         20.74880         4.18358        -1.91975
H         21.95423         6.26240        -1.33458
H         21.94355         8.61383        -0.63420
H         21.92847        10.45479        -0.14338
H         21.90697        12.68421         0.83519
H         21.84890        14.31127         2.02588
H         21.90059        16.59751         2.56842
H         21.88201        18.35204         0.94109
H         21.78837        20.44924        -0.30578
H         21.85252        22.43278        -0.80719
H         21.89270        24.79299        -1.34542
H         21.94278        26.76131        -1.53364
H         21.87182        29.11164        -2.30209
H         19.69520        30.33661        -2.38512
