         344
 CSIRO Nanostructure Databank - Neutral Graphene Oxide Data Set
C          1.47814         3.66277         1.94913
C          0.26982         4.22346         1.52681
C          1.33853         6.39772         1.27104
C          0.19187         5.57923         1.21416
C          1.27867         7.84034         1.00280
C          0.05814         8.52677         0.89456
C          1.18670        10.61704         0.31934
C          0.01302         9.88576         0.58966
C          1.16791        12.02325        -0.04083
C         -0.05597        12.76185        -0.07091
C          1.10069        14.87340        -0.50965
C         -0.07522        14.13434        -0.25135
C          1.10913        16.29027        -0.58206
C         -0.10495        17.03559        -0.57960
C          1.10267        19.15545        -0.60935
C         -0.10879        18.40944        -0.62708
C          1.09263        20.57855        -0.60420
C         -0.07947        21.33148        -0.78312
C          1.14541        23.45697        -0.69343
C         -0.06144        22.72584        -0.76880
C          1.09089        24.96003        -0.85800
C         -0.01674        25.60297        -0.05412
C          1.23879        27.69725         0.09622
C          0.04015        26.90022         0.30586
C          1.26186        29.06537         0.40903
C          3.90912         3.93275         2.62758
C          2.63397         4.45305         2.00336
C          3.82615         6.63858         1.70879
C          2.57402         5.80115         1.61089
C          3.75466         7.91590         0.91186
C          2.48513         8.57166         0.80348
C          3.65478        10.62326         0.08964
C          2.43950         9.93812         0.39717
C          3.62186        12.01390        -0.24794
C          2.37565        12.69551        -0.30894
C          3.62616        14.86069        -0.67537
C          2.34218        14.09803        -0.87235
C          3.60975        16.28839        -0.66767
C          2.35545        17.01760        -0.63143
C          3.59576        19.16089        -0.58819
C          2.34785        18.42652        -0.59150
C          3.61174        20.57444        -0.54127
C          2.34953        21.31992        -0.21194
C          3.61236        23.46720        -0.75455
C          2.36902        22.77800        -0.61444
C          3.60249        24.91959        -0.81189
C          2.42763        25.63286        -0.63861
C          3.62761        27.80505        -0.37190
C          2.43007        27.05368        -0.34379
C          3.63144        29.18644        -0.10498
C          2.43433        29.81200         0.27306
C          6.33072         3.80787         1.93610
C          5.14296         4.51655         1.98245
C          6.22817         6.43879         0.92798
C          5.09113         5.84706         1.48548
C          6.12217         7.71056         0.12688
C          4.90323         8.53396         0.44301
C          6.10135        10.58257        -0.27676
C          4.88273         9.90837         0.05560
C          6.07518        11.98510        -0.50454
C          4.84522        12.70586        -0.49459
C          6.09148        14.84228        -0.68604
C          4.83547        14.14396        -0.63917
C          6.08649        16.29535        -0.70493
C          4.82924        17.00478        -0.67581
C          6.04678        19.16521        -0.62401
C          4.82383        18.44017        -0.63458
C          6.04082        20.56846        -0.69392
C          4.82495        21.29017        -0.65654
C          6.09371        23.43552        -0.72424
C          4.83904        22.75037        -0.74103
C          6.21239        24.92326        -0.99437
C          4.87329        25.65747        -1.00445
C          6.15816        27.80737        -0.37346
C          4.88594        27.13661        -0.75518
C          6.15535        29.21774        -0.19720
C          4.87511        30.00024        -0.39275
C          8.75364         3.73495         1.50087
C          7.52616         4.42152         1.46101
C          8.67536         6.40293         0.48552
C          7.46975         5.75716         0.94395
C          8.62970         7.79162         0.01749
C          7.40816         8.49157         0.01969
C          8.56370        10.56728        -0.64277
C          7.35752         9.87440        -0.29079
C          8.51833        11.97162        -0.89370
C          7.30959        12.67962        -0.75713
C          8.56374        14.81689        -0.82099
C          7.29322        14.11987        -0.78196
C          8.56559        16.25725        -0.37456
C          7.29098        16.99978        -0.69296
C          8.50751        19.12705        -0.54579
C          7.31193        18.43618        -0.63036
C          8.48820        20.58313        -0.18153
C          7.35174        21.29341        -0.90379
C          8.53763        23.45310        -0.30343
C          7.29967        22.75826        -0.56493
C          8.54383        24.84112        -0.07227
C          7.20730        25.55142         0.00278
C          8.52945        27.71367         0.19428
C          7.31049        27.05648        -0.12656
C          8.54023        29.13484         0.31075
C          7.33495        29.86353         0.14402
C         11.18205         3.68710         1.20581
C          9.95725         4.37578         1.12125
C         11.12500         6.33728         0.07825
C          9.88962         5.72963         0.61334
C         11.08889         7.71998        -0.51914
C          9.81506         8.47100        -0.41517
C         11.01672        10.47716        -1.34019
C          9.78481         9.82996        -0.73769
C         11.04114        11.98598        -1.20938
C          9.72025        12.69230        -1.47726
C         11.00199        14.89241        -1.18251
C          9.72755        14.15533        -1.09036
C         11.01937        16.33412        -0.82939
C          9.82174        16.99746        -0.72907
C         11.04380        19.18140        -0.58449
C          9.78066        18.47408        -0.97739
C         11.02487        20.60097        -0.39153
C          9.80078        21.31007        -0.35540
C         11.00403        23.42396        -0.00429
C          9.78336        22.71953        -0.24233
C         10.98906        24.83350         0.22454
C          9.75453        25.54008         0.18134
C         10.95233        27.66363         0.64699
C          9.75097        26.97580         0.36195
C         10.92858        29.08532         0.82911
C          9.75682        29.79249         0.65233
C         13.72487         3.67904         1.01716
C         12.45529         4.39228         1.11359
C         13.66889         6.40175         0.03353
C         12.42899         5.82873         0.58851
C         13.63364         7.76254        -0.49970
C         12.36609         8.46786        -0.64695
C         13.54759        10.57354        -1.09480
C         12.32492         9.81619        -0.94404
C         13.51465        11.94613        -1.20921
C         12.23973        12.65101        -1.22746
C         13.53826        14.82891        -0.88331
C         12.28051        14.13875        -1.32583
C         13.51776        16.29382        -0.55099
C         12.26613        17.05951        -0.76234
C         13.51716        19.26025        -0.80466
C         12.25338        18.45838        -0.62613
C         13.53426        20.54438         0.00895
C         12.24587        21.31935        -0.17183
C         13.50652        23.33621         0.50742
C         12.22347        22.68299         0.06761
C         13.45327        24.83850         0.54431
C         12.21995        25.53819         0.49880
C         13.42492        27.63448         0.97931
C         12.20425        26.94465         0.72079
C         13.44271        29.05618         1.19212
C         12.15548        29.83770         1.28608
C         16.14425         3.60701         0.64802
C         14.87838         4.31373         0.60410
C         16.07932         6.23676        -0.53962
C         14.84566         5.68743         0.12904
C         16.09921         7.74692        -0.59080
C         14.83427         8.41504        -0.76525
C         16.02260        10.62210        -0.60696
C         14.86425         9.84047        -1.25862
C         16.04265        12.02062        -1.13506
C         14.78393        12.69326        -1.57443
C         15.99796        14.87035        -1.19677
C         14.82342        14.15924        -1.18254
C         15.94455        16.38178        -1.28138
C         14.86662        17.01936        -0.38622
C         15.96527        19.23663        -0.78494
C         14.81423        18.51323        -0.64861
C         15.94157        20.70668        -0.67847
C         14.78274        21.33949        -0.34457
C         15.98819        23.45078         0.22678
C         14.70908        22.84804        -0.31283
C         15.92509        24.79033         0.77455
C         14.66303        25.50981         0.77111
C         15.88468        27.59189         1.27929
C         14.65945        26.91884         1.00846
C         15.88515        29.01518         1.41086
C         14.63674        29.71794         1.36182
C         18.61813         3.57348         0.65274
C         17.34098         4.21160         0.34972
C         18.55174         6.26306        -0.20700
C         17.36714         5.60044        -0.08305
C         18.56138         7.73641        -0.29235
C         17.29602         8.44242        -0.59070
C         18.54281        10.54974        -0.85635
C         17.35002         9.88902        -0.72956
C         18.58944        12.00715        -1.16762
C         17.28641        12.74358        -1.37132
C         18.48551        14.91354        -1.11940
C         17.28625        14.21459        -1.27005
C         18.47404        16.37971        -1.04168
C         17.27242        17.05925        -1.04507
C         18.53751        19.29322        -1.04664
C         17.23425        18.53036        -1.09198
C         18.52142        20.78953        -0.84677
C         17.18712        21.56089        -0.91459
C         18.40771        23.38258         0.50039
C         17.18473        22.79751         0.00450
C         18.32822        24.64097         1.26998
C         17.08450        25.42914         1.20789
C         18.30896        27.54194         1.70521
C         17.10650        26.85528         1.44498
C         18.31882        28.97433         1.69816
C         17.10216        29.68877         1.57756
C         19.79439         4.18873         0.40741
C         21.09035         6.29390        -0.23983
C         19.83091         5.47741        -0.37587
C         21.11177         7.62885        -0.35769
C         19.86956         8.45421        -0.34655
C         20.96115        10.71702        -0.28896
C         19.89314         9.85708        -0.93684
C         20.89872        12.06903        -0.26180
C         19.76428        12.80146        -0.78043
C         20.92668        14.97604        -0.67893
C         19.72882        14.19986        -0.88340
C         20.92257        16.33804        -0.65118
C         19.71685        17.10901        -0.81280
C         20.84269        19.19882        -0.07199
C         19.73572        18.50702        -0.69224
C         20.84150        20.53144         0.18026
C         19.74316        21.42099        -0.25766
C         20.85566        23.50659         0.60286
C         19.65053        22.77769         0.34419
C         20.85471        24.77086         1.12242
C         19.63233        25.35283         1.67243
C         20.81921        27.60937         1.86825
C         19.57071        26.81798         2.15292
C         20.77819        28.97532         1.75462
C         19.55345        29.67577         1.74592
O         18.11619        12.25921        -2.54604
O          4.82556        26.60979        -2.13986
O         19.52399        21.41434        -1.72861
O         11.07172         6.51976        -1.38057
O         17.90906        18.98484        -2.33309
O         18.92331        24.48319         2.61392
O         11.66661        14.69786        -2.51812
O         12.47438         5.60069         2.01649
O         13.38189        15.27246         0.52494
O         19.18794         8.36068         0.93777
O          6.79467        25.01549        -2.31342
H          6.32160        25.74494        -2.78258
O         17.06147        22.08600        -2.26537
H         17.97801        22.15681        -2.62448
O         20.23279         9.70398        -2.34065
H         20.03248        10.55112        -2.79377
O         12.26863        31.09081         0.59712
H         12.40947        30.90420        -0.35357
O         13.76580        22.90016         1.88924
H         13.07775        23.29960         2.46254
O          9.74265        18.58613        -2.46502
H         10.62216        18.31028        -2.80337
O         19.83417         5.06977        -1.79426
H         18.97736         4.62563        -1.97400
O         15.15882         9.81017        -2.69097
H         14.52656         9.19556        -3.11947
O          7.65488        21.23675        -2.32506
H          7.06290        21.86236        -2.79299
O          8.17660        20.66129         1.24563
H          8.82167        20.10357         1.72909
O         14.53158        23.31464        -1.66977
H         15.28527        22.95565        -2.19852
O          3.90670         4.33281         4.01520
H          3.95273         5.32013         4.02210
O         15.54179        16.70000        -2.64562
H         16.23588        16.37288        -3.25655
O          9.53230        12.64264        -2.92879
H          9.68471        11.70515        -3.19960
O          3.90271         7.07137         3.12711
H          3.10000         7.60661         3.30823
O         15.69724        10.66220         0.82159
H         16.47217        11.01798         1.30479
O         15.97383         5.79539        -1.95033
H         15.09699         6.08459        -2.28249
O         15.30292        16.87989         0.98244
H         14.73325        16.18959         1.39887
O          0.75306        25.19932        -2.26940
H          0.81160        26.16615        -2.42338
O          2.30849        21.34670         1.27435
H          1.47806        21.80404         1.52755
O         13.63144        20.18916         1.40954
H         13.74272        21.03724         1.90801
O         14.80867        12.67772        -3.05290
H         15.09722        11.76842        -3.30997
O         19.47975        26.76640         3.61533
H         19.01221        25.92337         3.82912
O          4.80420        30.44817        -1.76382
H          4.77504        29.65402        -2.33749
O          6.65281        25.30450         1.33059
H          7.31231        25.59531         1.99461
O         13.47422        19.67211        -2.20833
H         13.85178        18.95009        -2.75479
O          5.86876         7.24851        -1.25706
H          6.68016         6.79103        -1.56629
O          8.58502        16.20802         1.10943
H          7.78864        15.70803         1.39104
O         10.89595        10.23483        -2.79900
H         11.67550        10.65402        -3.22451
O          2.24094        13.90792        -2.34381
H          1.42972        13.38049        -2.50745
H          1.52373         2.60600         2.24909
H         -0.63328         3.59962         1.47187
H         -0.77688         6.00467         0.91888
H         -0.88854         7.99454         1.06010
H         -0.96927        10.37376         0.53765
H         -1.00463        12.25212         0.14151
H         -1.03459        14.65504        -0.12525
H         -1.06873        16.50971        -0.57162
H         -1.07429        18.93236        -0.64021
H         -1.03565        20.82897        -0.98394
H         -1.00615        23.26435        -0.92405
H         -0.93344        25.02606         0.13739
H         -0.81283        27.37735         0.81233
H          0.33742        29.55468         0.74824
H          3.93849         2.81511         2.60219
H          2.42428        30.89339         0.47027
H          6.37368         2.77588         2.31482
H          4.89246        30.92114         0.24235
H          8.78879         2.70595         1.88709
H          7.34304        30.95431         0.28583
H         11.18305         2.61542         1.45318
H          9.76196        30.88514         0.77718
H         13.74545         2.60449         1.25317
H         11.99939        30.09903         2.37233
H         16.13953         2.57825         1.03944
H         14.63471        30.81016         1.49172
H         18.59480         2.58887         1.14492
H         17.11705        30.78790         1.61759
H         20.74549         3.69464         0.65750
H         22.03871         5.73507        -0.20759
H         22.07614         8.16011        -0.37373
H         21.85157        10.21498         0.11721
H         21.73417        12.62884         0.18328
H         21.88545        14.45078        -0.57411
H         21.88074        16.86167        -0.53426
H         21.69839        18.60719         0.28177
H         21.68023        20.97668         0.73402
H         21.80537        23.07352         0.25741
H         21.78340        25.35631         1.10730
H         21.79479        27.11202         1.95832
H         21.71741        29.54225         1.67459
H         19.54843        30.77400         1.70746
