         276
 CSIRO Nanostructure Databank - Neutral Graphene Oxide Data Set
C        -11.24398         0.72480        -0.73445
C         -9.99806         1.58235        -0.91353
C         -8.84050         0.81185        -0.26685
C         -7.58550         1.56687         0.14614
C         -6.26482         0.85099        -0.29916
C         -5.06125         1.54236         0.39800
C         -3.75846         0.75820         0.32516
C         -2.55762         1.43762         0.20089
C         -1.28743         0.88667         0.84542
C          0.00723         1.46253         0.26559
C          1.19419         0.76390         0.28994
C          2.45951         1.30153        -0.36733
C          3.72039         0.78174         0.35661
C          5.02216         1.39349        -0.18366
C          6.20052         0.76472         0.09314
C          7.49967         1.48600         0.07858
C          8.77310         0.77365         0.35950
C         10.12876         1.46917         0.20832
C         11.00546         0.67919        -0.74167
C        -10.02485         3.03111        -0.39289
C         -8.86985         3.73833        -0.17635
C         -7.57329         3.00260        -0.45899
C         -6.32762         3.76816         0.06942
C         -5.05198         2.94419        -0.18687
C         -3.73972         3.63008        -0.32672
C         -2.50253         2.85412        -0.07042
C         -1.27125         3.55177        -0.15009
C         -0.04594         2.86487        -0.07887
C          1.23795         3.58387        -0.19575
C          2.51494         2.82471        -0.34818
C          3.69120         3.50820        -1.04531
C          5.00492         2.68257        -1.00176
C          6.31153         3.49282        -0.98888
C          7.64159         2.73579        -0.77437
C          8.79633         3.58611        -0.25243
C          9.97747         2.96397         0.01076
C         -8.74957         5.18100         0.05023
C         -7.56742         5.88994        -0.06440
C         -6.29569         5.17803        -0.53915
C         -4.98393         5.87925        -0.15495
C         -3.76283         5.05499         0.15129
C         -2.45407         5.73417         0.40523
C         -1.39314         5.04128        -0.50075
C         -0.04950         5.73185        -0.72809
C          1.23570         4.98585        -0.69336
C          2.54030         5.70090        -0.69060
C          3.70425         5.01031        -0.82307
C          4.98525         5.76249        -0.93710
C          6.27680         4.98945        -0.83053
C          7.44133         5.66918        -0.20607
C          8.61813         5.01288        -0.02194
C         -7.49073         7.33055         0.11415
C         -6.30888         8.03330         0.18168
C         -4.99665         7.33494         0.13331
C         -3.81355         7.96605         0.81468
C         -2.52475         7.20111         0.86453
C         -1.29075         8.04407         1.16012
C          0.01436         7.23982        -0.78434
C          1.21638         7.89068        -0.17165
C          2.52334         7.15442        -0.35255
C          3.68038         8.04230        -0.80184
C          5.00823         7.26686        -0.89847
C          6.34724         7.95702        -0.57198
C          7.18578         7.04806         0.36800
C         -6.20193         9.48415         0.21445
C         -5.03154        10.13996         0.41006
C         -3.76597         9.49840         0.94144
C         -2.46028        10.06708         0.38849
C         -1.26812         9.42579         0.56051
C          0.04157        10.04362         0.31481
C          1.21174         9.37157         0.04580
C          2.51563         9.99052         0.21155
C          3.69892         9.33599        -0.02301
C          4.98339         9.91719         0.30858
C          6.16669         9.31056         0.07171
C        -11.19983        -0.61322        -0.88604
C         -9.90168        -1.35941        -1.19307
C         -8.79578        -0.66707        -0.40215
C         -7.51095        -1.40897        -0.14243
C         -6.20502        -0.68667        -0.26454
C         -4.94030        -1.45593        -0.00358
C         -3.88320        -0.69661         0.82044
C         -2.55891        -1.43888         1.01207
C         -1.28015        -0.65386         0.95442
C          0.00080        -1.37136         0.64159
C          1.27324        -0.59867         0.97401
C          2.52266        -1.39076         0.59189
C          3.68978        -0.73246         0.37312
C          4.97991        -1.43469         0.52658
C          6.24424        -0.65559         0.55644
C          7.49644        -1.44844         0.29540
C          8.78296        -0.71502         0.21316
C         10.12893        -1.43298         0.27828
C         11.03322        -0.66303        -0.68264
C         -9.91300        -2.85763        -0.88903
C         -8.84939        -3.56303        -0.43648
C         -7.55683        -2.89426        -0.10005
C         -6.29645        -3.68228        -0.01844
C         -4.93329        -2.99563        -0.11442
C         -3.83716        -3.69570         0.64881
C         -2.54369        -2.99569         1.06385
C         -1.40315        -3.57473         0.21853
C         -0.03264        -2.85688         0.44627
C          1.19823        -3.64016         0.81054
C          2.52482        -2.87130         0.81760
C          3.71798        -3.65360         0.37237
C          5.03158        -2.88348         0.19344
C          6.26530        -3.62015         0.21990
C          7.53019        -2.93529         0.67335
C          8.77447        -3.59663         0.09722
C          9.94725        -2.88880        -0.08040
C         -8.90249        -5.05096        -0.10792
C         -7.58209        -5.77506        -0.48791
C         -6.34011        -5.03183         0.04580
C         -5.17723        -5.81428         0.62088
C         -3.85647        -5.04874         0.61384
C         -2.62346        -5.85835         0.99616
C         -1.33894        -5.08421         0.45811
C         -0.04085        -5.82023         0.63076
C          1.23547        -5.08355         0.65437
C          2.51281        -5.81506         0.79378
C          3.81650        -5.12122         0.61313
C          5.01152        -5.79132         0.43132
C          6.18995        -5.05351        -0.22429
C          7.52491        -5.76040        -0.16008
C          8.71373        -4.98338        -0.21064
C         -7.53736        -7.22230        -0.08987
C         -6.35926        -7.98492        -0.35191
C         -5.03625        -7.20348         0.02449
C         -3.92611        -8.06207         0.60818
C         -2.61710        -7.28737         0.33564
C         -1.41565        -8.12245         0.89368
C         -0.26633        -7.15567         1.32734
C          1.40356        -7.92487        -0.45299
C          2.51991        -7.27918         0.35904
C          3.81412        -8.01701         0.20915
C          5.11223        -7.27847         0.44405
C          6.43201        -8.01404         0.16615
C          7.56834        -7.13280        -0.27522
C         -6.23424        -9.45900        -0.32993
C         -5.03403       -10.10320        -0.30854
C         -3.77321        -9.42626        -0.05191
C         -2.53637        -9.98674        -0.28613
C         -1.24680        -9.34644        -0.00975
C         -0.06586        -9.98688        -0.31843
C          1.27844        -9.41255        -0.28263
C          2.47748       -10.06518        -0.38159
C          3.72052        -9.22604        -0.70549
C          5.05339        -9.92382        -0.82999
C          6.22684        -9.30390        -0.61671
O         -3.41074         7.30900         2.04295
O          1.91042         7.25566         0.96044
O         -5.25609        -1.01138        -1.34823
O          5.05201         6.57978        -2.18229
O          5.60204        -1.03344         1.82571
O         -1.76446        -8.76280         2.14307
O          0.15859        -1.94093        -0.68895
O         -2.03973         5.08939        -1.80026
O          2.39194        -6.91273         1.74937
O         -4.48351         3.16530        -1.50089
O          4.72800         2.27774        -2.42288
O         -5.40127        -7.35670        -1.32388
O         -3.09220         4.95550         1.45362
O          0.53692         5.17243        -1.97142
O         -4.63583         6.86253        -1.21404
O         -2.62248        -6.04125         2.36015
O          3.59827         3.22872        -2.50328
O          2.16890         3.39730         0.93248
O         -0.71909        -5.70577        -0.68776
O         -1.88224        -1.00586         2.23164
O          4.13390        -3.20936        -0.96110
O          8.03960         1.40794         1.46544
O          6.49740         4.35584        -2.13373
O          4.45776        -8.07615         1.49937
O         -1.45955         1.43586         2.12278
O          8.05480        -1.13388        -1.00552
O          1.91410        -3.23132         2.06921
O         -9.29984        -0.04800         0.82820
O          0.83445        -7.35383        -1.36485
O          8.06183         2.25329        -2.02825
O         -0.43255         7.63221         1.91831
O         -7.61696        -2.09536         1.15884
O         -9.61369        -1.20515        -2.60237
H         -9.70994        -0.23806        -2.80797
O         -0.81282         7.87134        -1.42528
H         -1.35173         4.94399        -2.48862
O          7.61942        -3.01539         2.12106
H          6.90250        -2.45115         2.49472
O         -4.45386        -0.68971         2.16566
H         -3.69293        -0.49237         2.76857
O         -2.60503        -7.26031        -1.08873
H         -1.75335        -6.88610        -1.41949
O         -7.48505        -5.69469        -1.93191
H         -6.62435        -6.09361        -2.20096
O         -5.45806        -5.94748         2.03642
H         -4.58572        -6.13221         2.48521
O         -6.14679         1.14478        -1.69930
H         -5.32401         0.72972        -2.03830
O         -1.78013        -3.36921        -1.14083
H         -1.17289        -3.88698        -1.71217
O         -6.45533         4.04660         1.46749
H         -6.43219         3.19110         1.96409
O         -6.33321         5.15918        -1.98009
H         -5.77447         5.91289        -2.29101
O         -9.79173         1.60999        -2.35421
H         -8.97212         2.15144        -2.51812
O          6.41376         6.88562         1.56869
H          6.95559         6.41140         2.23207
O         -9.14025        -5.22004         1.29137
H         -8.57178        -4.59340         1.78714
O          3.46248        -8.62721        -2.01308
H          3.35444        -9.34549        -2.67092
O          7.08957         8.14118        -1.78586
H          6.76641         7.46949        -2.43167
O          2.45005         0.80158        -1.71175
H          3.26471         1.09919        -2.18517
O          3.32144         8.43224        -2.15396
H          3.72641         7.77370        -2.76717
O          3.63461         1.20659         1.74366
H          4.36436         0.75847         2.23082
O          0.20010        -7.34328         2.43444
H         -1.12996        -8.41324         2.82366
O         -4.26095        -8.23836         1.98124
H         -3.41963        -8.42243         2.47371
O         -3.74949         9.83133         2.35527
H         -3.47592         9.01320         2.83796
O         -7.66005         1.68865         1.56945
H         -8.21595         0.93823         1.89516
O          6.94139        -8.49267         1.45395
H          6.15079        -8.70151         2.00663
O         10.67845        -1.37672         1.60889
H         10.91762        -0.42900         1.78547
O         -2.23424        -3.39164         2.40036
H         -2.96400        -3.14156         3.00214
O         -7.56785         2.93199        -1.89987
H         -6.89089         3.55282        -2.26544
O         -5.25435         1.74400         1.81044
H         -5.21579         0.86230         2.26044
O         10.75813         1.34610         1.52918
H         10.10011         1.68111         2.17936
O         -4.54921        -3.32102        -1.48573
H         -4.89368        -2.61168        -2.07755
O          1.33968        -0.36341         2.38698
H          2.00238         0.34963         2.54607
O          5.88956        -5.09288        -1.66189
H          5.16451        -4.43930        -1.82747
H         11.70011        -1.23058        -1.35042
H         11.65213         1.22207        -1.44630
H         10.83930         3.57116         0.33343
H          9.46299         5.55179         0.43903
H          8.16234         7.54953         0.60715
H          7.09744         9.83139         0.34340
H          4.97506        10.90907         0.78683
H          2.54436        10.99646         0.65960
H          0.09467        11.13845         0.43417
H         -2.47372        11.09747        -0.00243
H         -5.02949        11.24018         0.37259
H         -7.11146        10.06503        -0.00555
H         -8.43832         7.88643         0.20652
H         -9.66994         5.73441         0.30307
H        -11.00295         3.53557        -0.32247
H        -12.20659         1.22295        -0.53843
H        -12.12754        -1.20149        -0.80311
H        -10.84807        -3.39951        -1.10931
H         -9.74842        -5.53544        -0.65541
H         -8.34740        -7.66383         0.51093
H         -7.16188       -10.04165        -0.43099
H         -5.01965       -11.19707        -0.43715
H         -2.49885       -10.98078        -0.76395
H         -0.14368       -11.00143        -0.74691
H          2.53925       -11.16508        -0.37503
H          5.05239       -10.92298        -1.29598
H          7.15508        -9.85651        -0.83441
H          8.54985        -7.62845        -0.35594
H          9.65959        -5.50400        -0.43388
H         10.81979        -3.42135        -0.49383
