         404
 CSIRO Nanostructure Databank - Neutral Graphene Oxide Data Set
C          1.30420         3.23690         0.86852
C          0.15402         3.93184         1.11137
C          1.29983         6.10796         1.23232
C          0.14842         5.34656         1.31449
C          1.29493         7.56062         1.17365
C          0.10348         8.30360         1.52813
C          1.14773        10.48656         1.04605
C          0.03972         9.66144         1.54761
C          1.19771        11.96281         1.30937
C          0.02175        12.68376         1.61435
C          1.25672        14.79640         1.69924
C          0.05216        14.05405         1.81838
C          1.32263        16.19833         2.00688
C          0.26387        16.89924         2.61012
C          1.54417        18.98488         2.52435
C          0.42451        18.22991         2.98790
C          1.36266        21.31616         1.98118
C          0.40521        22.24323         2.28310
C          1.20087        23.80799         0.59968
C          0.26318        23.44700         1.51734
C          1.06148        24.99615        -0.32617
C          0.03107        26.01144         0.11331
C          1.14076        27.76465        -1.21064
C          0.04212        27.26943        -0.34818
C          1.21972        29.22793        -1.46429
C          0.04797        29.94986        -1.68130
C          1.29005        32.04082        -1.82541
C          0.08115        31.33164        -1.88938
C          1.33457        33.48845        -1.97744
C          0.17868        34.23742        -2.28506
C          1.42260        36.32692        -2.22015
C          0.21724        35.62122        -2.40594
C          1.47636        37.75863        -2.32257
C          3.81349         3.29050         0.43898
C          2.60523         3.88480         1.01469
C          3.80171         6.16101         0.72976
C          2.60634         5.43171         1.18197
C          3.74103         7.58204         0.65052
C          2.47760         8.24914         0.89398
C          3.71547        10.44409         0.81570
C          2.42067         9.71494         0.73923
C          3.67077        11.92317         0.95784
C          2.40069        12.68031         1.15398
C          3.67535        14.84270         1.11816
C          2.44453        14.09357         1.31737
C          3.74519        16.22419         1.23737
C          2.65643        16.91360         1.99750
C          3.61204        19.12054         1.01461
C          2.55982        18.40726         1.78970
C          3.54198        20.59281         0.63462
C          2.30913        21.46988         0.85571
C          3.58903        23.46031        -0.18594
C          2.29581        22.86989         0.24435
C          3.58758        24.87172        -0.53435
C          2.41174        25.62939        -0.59386
C          3.69325        27.69048        -1.50474
C          2.40365        26.95213        -1.25795
C          3.70566        29.16579        -1.32179
C          2.47813        29.89549        -1.45396
C          3.73740        32.00864        -1.40374
C          2.49895        31.31811        -1.57947
C          3.77005        33.45247        -1.49693
C          2.57412        34.17223        -1.80357
C          3.83581        36.30342        -1.73827
C          2.61263        35.59929        -1.92142
C          3.86729        37.73599        -1.83302
C          2.64739        38.43694        -2.13171
C          6.16802         3.26194        -0.26178
C          4.95753         4.01190         0.25113
C          6.16999         6.19118         0.06159
C          4.97978         5.45898         0.38845
C          6.14449         7.61604         0.05293
C          4.92541         8.30899         0.32524
C          6.09602        10.46452         0.06273
C          4.93854         9.74849         0.32984
C          6.05798        11.93824        -0.02787
C          4.82385        12.67666         0.38983
C          6.15604        14.84719         0.50823
C          4.91129        14.09604         0.83148
C          6.10110        16.31677         0.49177
C          4.93853        16.98633         0.90628
C          6.07100        19.16110         0.51973
C          4.92074        18.42844         0.87477
C          6.03294        20.60256         0.28349
C          4.81367        21.30396         0.29892
C          6.01322        23.30305        -0.55401
C          4.77790        22.69217        -0.11893
C          5.86888        24.57962        -1.18321
C          4.82395        25.45999        -1.00050
C          6.21551        27.69859        -1.03553
C          4.97710        26.91290        -1.38553
C          6.16327        29.10215        -0.86142
C          4.91464        29.84782        -1.08424
C          6.07440        32.03746        -0.61227
C          4.89571        31.27881        -1.06815
C          6.17941        33.47316        -0.93271
C          4.99015        34.15907        -1.31894
C          6.25460        36.28431        -1.28087
C          5.02874        35.58625        -1.45048
C          6.27247        37.71659        -1.35455
C          5.07004        38.41772        -1.62487
C          8.62816         3.42298        -0.55226
C          7.43497         4.07607        -0.32104
C          8.60550         6.24305        -0.37477
C          7.39653         5.50341        -0.21940
C          8.57062         7.66779        -0.32369
C          7.36149         8.35064        -0.17882
C          8.50552        10.55077        -0.48103
C          7.35125         9.80973        -0.20291
C          8.51341        11.99712        -0.44780
C          7.32919        12.66920        -0.16937
C          8.54880        14.90816        -0.31948
C          7.25379        14.13711        -0.21355
C          8.51970        16.31651         0.08936
C          7.32356        17.02380         0.28420
C          8.53237        19.17740         0.24174
C          7.31935        18.46379         0.37502
C          8.49731        20.58531         0.05803
C          7.28450        21.28740        -0.00137
C          8.54912        23.42636        -0.33526
C          7.28887        22.69682        -0.36213
C          8.62785        24.87955        -0.37327
C          7.67180        25.65746        -1.03237
C          8.60043        27.73026        -0.27410
C          7.45889        27.03561        -0.77239
C          8.56881        29.15644        -0.21554
C          7.35771        29.81163        -0.48051
C          8.60108        32.02537        -0.24621
C          7.33016        31.27684        -0.26738
C          8.60678        33.42128        -0.45582
C          7.40628        34.14883        -0.81101
C          8.70754        36.27398        -1.01706
C          7.46815        35.57556        -1.03826
C          8.71425        37.72704        -0.98526
C          7.48774        38.39848        -1.11995
C         11.06475         3.46028        -0.98604
C          9.85507         4.13924        -0.71846
C         11.05487         6.30062        -0.85246
C          9.83522         5.55940        -0.62859
C         11.05212         7.70124        -0.77282
C          9.85785         8.45708        -0.26894
C         11.03918        10.61336        -0.83295
C          9.74477         9.82107        -0.95417
C         11.01864        12.03331        -0.76143
C          9.77358        12.73542        -0.58028
C         11.04007        14.82552        -0.32860
C          9.80129        14.13037        -0.39089
C         11.07479        16.23907         0.11955
C          9.78410        17.00350         0.32057
C         11.01691        19.13291         0.29367
C          9.80095        18.47074         0.26514
C         10.95165        20.61997         0.53552
C          9.81562        21.25269        -0.27752
C         10.95001        23.41052         0.31810
C          9.77264        22.74641        -0.07259
C         10.88404        24.82732         0.66575
C          9.73449        25.60083         0.17302
C         11.07291        27.73724         0.09804
C          9.76319        26.99853         0.10125
C         10.97270        29.20948         0.39720
C          9.78980        29.88687         0.12566
C         11.02983        32.03704         0.16485
C          9.80549        31.33068         0.03358
C         11.07060        33.43221        -0.13508
C          9.85484        34.11295        -0.44895
C         11.17979        36.00957        -1.09414
C          9.90105        35.48220        -0.84605
C         11.17615        38.16758        -0.92956
C          9.86778        38.53622        -0.63255
C         13.50317         3.46817        -1.42938
C         12.25922         4.16875        -1.25140
C         13.42377         6.33003        -1.67632
C         12.24000         5.58810        -1.21638
C         13.56327         7.76060        -1.27747
C         12.30502         8.46620        -0.83154
C         13.49962        10.64340        -1.06535
C         12.26584         9.94061        -0.91595
C         13.50097        12.06249        -1.02678
C         12.25624        12.75722        -0.83629
C         13.46186        14.97665        -0.80677
C         12.23231        14.17220        -0.64215
C         13.50293        16.37732        -0.35287
C         12.30067        17.03191        -0.04400
C         13.50887        19.14162         0.08525
C         12.27337        18.43370         0.16766
C         13.46548        20.60980        -0.02179
C         12.24693        21.34509         0.27966
C         13.49401        23.46397         0.50789
C         12.23308        22.72890         0.36649
C         13.46743        24.86976         0.82257
C         12.19650        25.58469         0.94699
C         13.40176        27.73695         0.96428
C         12.21680        27.03602         0.76376
C         13.36950        29.18970         0.95503
C         12.19598        29.91135         0.69890
C         13.42472        32.08484         0.73689
C         12.23132        31.35927         0.57928
C         13.52275        33.46364         0.32185
C         12.32227        34.12864        -0.13351
C         13.61979        36.27064        -0.63370
C         12.36863        35.46342        -0.59238
C         13.60666        37.76943        -0.48766
C         12.42449        38.57184        -0.40639
C         15.96634         3.47673        -1.50430
C         14.70616         4.12395        -1.65450
C         16.00056         6.31244        -2.05431
C         14.69863         5.56358        -1.98214
C         16.00573         7.85404        -2.01325
C         14.74296         8.56837        -1.66471
C         15.96240        10.71497        -1.59906
C         14.72564         9.92241        -1.38630
C         15.98135        12.13579        -1.17712
C         14.76283        12.78118        -1.04314
C         16.00832        14.95949        -0.59638
C         14.77298        14.25767        -0.99535
C         15.97347        16.30747        -0.26797
C         14.74152        17.05385        -0.23371
C         16.01241        19.19015         0.10733
C         14.73977        18.46830        -0.01489
C         16.03950        20.61184         0.23113
C         14.79351        21.38182         0.02187
C         16.00170        23.48910         0.57869
C         14.71648        22.78702         0.41558
C         15.96048        24.94411         0.91514
C         14.64551        25.61974         1.02416
C         15.85893        27.74524         1.55589
C         14.61012        27.00943         1.23868
C         15.88490        29.18716         1.17672
C         14.58745        29.90894         1.34096
C         15.94491        32.08851         1.18670
C         14.62777        31.41451         1.24645
C         15.89485        33.55981         1.08667
C         14.73015        34.16259         0.39560
C         16.07260        36.32590         0.24534
C         14.86622        35.54155        -0.10844
C         16.06872        37.73548        -0.01483
C         14.83001        38.40803        -0.26568
C         18.39826         3.48451        -1.17240
C         17.17074         4.18389        -1.44923
C         18.41829         6.32297        -1.44390
C         17.22368         5.61231        -1.63978
C         18.45874         7.77715        -1.49486
C         17.28406         8.51452        -1.69654
C         18.54857        10.73737        -1.53185
C         17.27601         9.98518        -1.76161
C         18.48917        12.13760        -1.06532
C         17.23925        12.83836        -0.98187
C         18.47607        14.89763        -0.36169
C         17.23915        14.20498        -0.60330
C         18.48166        16.28371        -0.03246
C         17.18733        16.96080         0.33863
C         18.45311        19.14257         0.41066
C         17.21489        18.46679         0.20638
C         18.46842        20.55961         0.60762
C         17.24095        21.28868         0.53773
C         18.44114        23.38139         1.05473
C         17.25622        22.71641         0.77355
C         18.44239        24.80309         1.50562
C         17.15674        25.55270         1.57783
C         18.45420        27.77253         1.51224
C         17.16934        27.04654         1.70448
C         18.44910        29.18133         1.39494
C         17.17883        29.92331         1.16257
C         18.41197        32.09523         1.32899
C         17.15805        31.41097         1.27640
C         18.45560        33.58757         1.63817
C         17.16495        34.32885         1.26139
C         18.47151        36.40912         0.73312
C         17.23586        35.70348         0.70258
C         18.48032        37.80798         0.43133
C         17.26444        38.45942         0.12163
C         19.57390         4.16072        -1.03352
C         20.81753         6.28170        -0.92627
C         19.62114         5.59452        -1.13215
C         20.85820         7.68635        -0.98650
C         19.72104         8.43865        -1.24798
C         20.90980        10.63248        -0.61789
C         19.81528         9.92610        -1.29803
C         20.87934        11.98188        -0.47293
C         19.69572        12.77508        -0.72433
C         20.91908        14.91297        -0.30163
C         19.70820        14.19072        -0.45640
C         20.91122        16.26746        -0.04454
C         19.69131        16.97609         0.13074
C         20.87122        19.10387         0.70720
C         19.68638        18.40988         0.43586
C         20.88102        20.48444         0.92084
C         19.70147        21.24200         0.86076
C         20.86901        23.42584         1.25858
C         19.70218        22.68416         1.06979
C         20.87290        24.83971         1.39796
C         19.70764        25.57757         1.50113
C         20.87465        27.79586         1.49116
C         19.67630        27.04269         1.52229
C         20.86716        29.18170         1.43375
C         19.65922        29.91111         1.35223
C         20.83492        32.10791         1.11680
C         19.63453        31.37872         1.27506
C         20.84855        33.50566         0.97168
C         19.70335        34.27582         1.12893
C         20.90242        36.45477         0.94709
C         19.70815        35.71468         0.96191
C         20.89745        37.84168         0.71966
C         19.71654        38.51432         0.45695
O         14.06371        14.83502        -2.14920
O         16.08444         7.10602        -3.27226
O          6.40629        31.70972         0.79927
O          2.83953         4.52987         2.30618
O         19.50724        10.50346        -2.61298
O          5.95186        14.28541         1.86111
O         14.59314        35.71121        -1.56000
O          4.41865        27.24469        -2.70268
O         13.79040         5.97724        -3.04499
O          1.54442        10.16810        -0.34347
O         13.29197         7.94246         0.16088
O         16.54591        10.50510        -2.93208
O         17.64691        24.89595         2.77977
O         14.12983        21.08720        -1.24852
O          5.03381        12.44415        -1.02814
O          1.54833        20.32262         2.92859
O         10.51670        16.41695         1.47771
O         11.30025        25.12323         2.03905
O          3.98094        11.08432         2.12932
O          6.90988        25.02036        -2.00898
O         11.28158        37.14143        -1.89594
O         14.44574        30.71496         2.54849
O          1.44609        26.95822        -2.40485
O          7.64674        14.70064        -1.49155
O          1.73445        21.71309        -0.46457
O          3.19279        19.54744        -0.34656
O         16.19569        34.27447         2.37866
O         16.21892        24.54065        -0.47390
O         16.52520        29.45961        -0.10769
O         16.41597        27.49905         2.89335
O         10.59774        20.81276         1.93390
H         11.22293        20.30088         2.48774
O         10.11733         8.74445         1.14148
H         10.35132         7.90335         1.58727
O         18.57214        33.65903         3.09590
H         17.64749        33.69790         3.44176
O          5.88652         2.74102        -1.57890
H          5.80912         3.49816        -2.19517
O         10.08888        20.99161        -1.67770
H          9.39805        21.43204        -2.21533
O          0.60280        24.46012        -1.60521
H          0.71682        25.18645        -2.26653
O          9.56241         9.55608        -2.37366
H          9.40506        10.40933        -2.82994
O          3.12726        16.78796         3.41835
H          3.26653        15.83187         3.59475
O         11.47159        27.71499        -1.34500
H         10.79618        28.22684        -1.84121
O         17.03866        16.72069         1.79628
H         17.82306        17.11459         2.23534
H          1.26839         2.19166         0.52846
H         -0.81572         3.41847         1.04337
H         -0.83033         5.83836         1.39989
H         -0.76538         7.73885         1.89384
H         -0.85119        10.15110         1.96594
H         -0.93762        12.15559         1.70079
H         -0.88362        14.57020         2.07110
H         -0.69216        16.39906         2.81852
H         -0.37160        18.75306         3.53318
H         -0.25101        22.07087         3.14547
H         -0.59803        24.09011         1.74069
H         -0.81022        25.68611         0.74099
H         -0.74206        27.98054        -0.04758
H         -0.91767        29.42609        -1.70449
H         -0.86579        31.85487        -2.07375
H         -0.78218        33.72812        -2.43736
H         -0.70203        36.17518        -2.64446
H          0.54937        38.30355        -2.55373
H          3.79620         2.22433         0.16579
H          2.67489        39.53379        -2.20686
H          6.33943         2.36632         0.39058
H          5.09053        39.51624        -1.68208
H          8.63797         2.32677        -0.64197
H          7.47776        39.49812        -1.08741
H         11.06877         2.36118        -1.02243
H          9.67760        39.47130        -0.08413
H         13.51572         2.38461        -1.23788
H         12.50860        39.55230         0.08744
H         15.98062         2.39004        -1.33315
H         14.84156        39.50844        -0.23642
H         18.36542         2.39066        -1.06620
H         17.26412        39.54501        -0.05579
H         20.50696         3.61993        -0.81861
H         21.73787         5.72051        -0.71197
H         21.82307         8.18630        -0.82763
H         21.77628        10.06889        -0.24542
H         21.74561        12.47682        -0.01261
H         21.88340        14.40201        -0.42241
H         21.87118        16.79420         0.03341
H         21.82819        18.56789         0.75639
H         21.84221        20.97225         1.13087
H         21.84514        22.92219         1.24086
H         21.85175        25.33895         1.41334
H         21.84465        27.28197         1.52488
H         21.83200        29.70568         1.43493
H         21.78943        31.57537         1.01490
H         21.79964        33.98583         0.69989
H         21.86142        35.95425         1.13789
H         21.84913        38.39103         0.73606
H         19.72305        39.59402         0.25063
