         349
 CSIRO Nanostructure Databank - Neutral Graphene Oxide Data Set
C          1.42922         2.35296         1.87054
C          1.32110         3.70116         1.34218
C          2.62922         1.71184         1.91440
C          2.25132         4.67653         1.57747
C          1.20740         6.89980         1.08300
C          1.15047         8.08427         0.40677
C          2.25184         5.92826         0.76262
C          2.25359         8.54010        -0.37264
C          0.90517        10.62742        -0.92363
C          0.93513        11.96805        -0.72899
C          2.14775         9.82732        -1.17427
C          2.17078        12.70832        -0.66584
C          0.94961        14.93099        -0.08728
C          1.00649        16.25308         0.22905
C          2.14411        14.19052        -0.53419
C          2.25293        16.97708         0.34825
C          2.29421        18.33227         0.76873
C          3.85272         2.30563         1.39860
C          3.85157         3.29986         0.25693
C          5.07623         1.91755         1.87549
C          4.92770         4.35875         0.33076
C          3.50275         6.41925        -0.01509
C          3.47267         7.85000        -0.39649
C          4.81983         5.70461         0.08157
C          4.65673         8.51327        -0.88558
C          3.41230        10.62092        -1.01134
C          3.38462        12.02209        -0.81504
C          4.63898         9.90869        -1.09733
C          4.72520        12.62793        -0.47381
C          3.47456        14.90816        -0.35598
C          3.47486        16.28019         0.19230
C          4.72072        14.11997        -0.28771
C          4.68957        16.88939         0.54187
C          3.49777        18.96278         1.02616
C          4.73267        18.25682         0.93975
C          6.30308         2.53803         1.45570
C          6.29837         3.71576         0.48395
C          7.50658         2.04653         1.89209
C          7.32219         4.75436         0.94669
C          6.04327         6.47079        -0.25047
C          5.89603         7.72665        -1.03862
C          7.29515         5.96157         0.01716
C          7.18453         8.43816        -1.48495
C          5.85826        10.65447        -1.54114
C          5.85917        12.18406        -1.40794
C          7.15116         9.92560        -1.78715
C          7.18669        12.77355        -0.90579
C          5.91755        14.72057        -0.02174
C          5.92182        16.08262         0.56983
C          7.16889        14.02334        -0.29495
C          7.21419        16.78758         0.85842
C          5.98115        18.91328         1.17291
C          7.21293        18.25250         1.06293
C          8.75102         2.68842         1.54920
C          8.68888         4.12200         1.15276
C          9.94651         2.01952         1.58366
C          9.90586         4.73091         0.54060
C          8.52972         6.57207        -0.49402
C          8.46726         7.82327        -1.13856
C          9.77688         5.90103        -0.33294
C          9.65169         8.48749        -1.82339
C          8.46079        10.75911        -1.93474
C          8.43372        12.11985        -1.23994
C          9.72034         9.97545        -1.56858
C          9.64434        12.75390        -1.04731
C          8.40724        14.82357        -0.22541
C          8.47543        16.12381         0.48775
C          9.69443        14.17264        -0.65355
C          9.66223        16.76678         0.68880
C          8.46326        18.89415         1.17202
C          9.68672        18.17923         1.05391
C         11.17998         2.58779         1.07835
C         11.15896         3.94589         0.52600
C         12.31723         1.82530         0.98618
C         12.32169         4.54305         0.10515
C         11.00827         6.38763        -0.96905
C         10.97160         7.76554        -1.61027
C         12.32902         5.82508        -0.55414
C         12.22011         8.54026        -1.50608
C         10.92187        10.61919        -1.45494
C         10.92769        12.10576        -1.41696
C         12.19827         9.90653        -1.41198
C         12.21767        12.87960        -1.28173
C         10.98273        14.78427        -0.23966
C         10.93962        15.96000         0.73143
C         12.15539        14.22173        -0.62647
C         12.19020        16.78650         0.72795
C         10.91998        18.83404         1.17120
C         12.17334        18.15662         0.99199
C         13.53243         2.35828         0.26185
C         13.61695         3.86609         0.46971
C         14.84424         1.70442         0.61589
C         14.83812         4.47049        -0.16442
C         13.51400         6.40701        -0.97380
C         13.48073         7.75131        -1.60291
C         14.80864         5.77171        -0.70950
C         14.76593         8.48115        -1.81729
C         13.47998        10.64981        -1.22461
C         13.51517        12.14034        -1.18775
C         14.78225         9.94168        -1.46432
C         14.69856        12.78969        -0.99284
C         13.43448        14.93494        -0.40640
C         13.47220        16.01766         0.66516
C         14.72435        14.24104        -0.67507
C         14.71421        16.86343         0.57484
C         13.41428        18.88392         1.10851
C         14.65493        18.27631         0.92825
C         16.03359         2.36314         0.43840
C         16.04795         3.77055        -0.00233
C         17.29280         1.65926         0.55831
C         17.26522         4.42583        -0.27458
C         16.04397         6.39431        -1.03923
C         16.07061         7.74641        -1.65433
C         17.26826         5.74480        -0.78314
C         17.34723         8.53929        -1.67457
C         15.99345        10.80551        -1.82785
C         16.03040        12.04276        -0.88746
C         17.33948        10.03811        -1.82243
C         17.23990        12.93463        -1.20135
C         15.94459        14.74570         0.09147
C         15.90161        16.23926         0.33825
C         17.19562        14.33930        -0.67884
C         17.16286        16.85492         0.87255
C         15.88034        19.00254         1.03408
C         17.12301        18.36272         0.95828
C         18.50406         2.28508         0.36277
C         18.52066         3.74514         0.12031
C         19.75739         1.58217         0.34515
C         19.82807         4.38965        -0.17782
C         18.55986         6.40268        -1.17346
C         18.62038         7.88860        -1.28091
C         19.84674         5.67631        -0.92423
C         19.81353         8.57594        -1.24861
C         18.62684        10.77547        -1.57067
C         18.58790        12.27345        -1.37956
C         19.87972        10.03604        -1.23918
C         19.81509        12.95157        -0.88592
C         18.49770        15.03970        -0.40133
C         18.45261        16.32448         0.31085
C         19.76922        14.28326        -0.46094
C         19.62644        17.00006         0.55597
C         18.33866        19.06306         1.04943
C         19.59826        18.41410         0.94120
C         20.96845         2.18273         0.04298
C         21.06478         3.58607        -0.22230
C         22.20107         1.32783        -0.13974
C         22.27928         4.25071        -0.42890
C         21.13187         6.39710        -0.91042
C         21.09790         7.82344        -1.28940
C         22.31433         5.69002        -0.69181
C         22.38944         8.56611        -1.34879
C         21.05451        10.73964        -1.03032
C         21.03604        12.18170        -0.75935
C         22.42249        10.10112        -1.31017
C         22.18615        12.80588        -0.25419
C         20.93974        14.94008         0.06779
C         20.87300        16.28874         0.46925
C         22.18540        14.19871         0.12136
C         22.04372        16.98237         1.02297
C         20.79738        19.12612         1.05170
C         22.06925        18.47216         1.02057
C         23.49992         2.10381        -0.09610
C         23.51605         3.52492        -0.28664
C         24.68110         1.40994         0.07774
C         24.74424         4.22610        -0.24706
C         23.59276         6.35779        -0.73281
C         23.65757         7.79447        -1.08616
C         24.77449         5.66548        -0.41881
C         24.90062         8.55759        -0.72155
C         23.55350        10.64277        -0.46060
C         23.39123        12.00173         0.07541
C         24.76414         9.98530        -0.33753
C         24.65647        12.71475         0.52917
C         23.37279        14.85331         0.49309
C         23.34411        16.22213         1.03713
C         24.65288        14.18820         0.51524
C         24.61557        17.00603         1.07039
C         23.25928        19.17431         0.98592
C         24.57932        18.52519         0.99069
C         25.94129         2.08130         0.10046
C         25.95884         3.50791        -0.04499
C         27.14815         1.37907         0.28764
C         27.19625         4.20283         0.03999
C         26.02118         6.36171        -0.21127
C         26.06581         7.80433        -0.20394
C         27.20886         5.63614         0.03783
C         27.21101         8.49996         0.13498
C         25.96752        10.64226         0.12822
C         25.95681        12.03421         0.39802
C         27.20917         9.94110         0.20687
C         27.15122        12.74307         0.56075
C         25.83478        14.88360         0.56613
C         25.77961        16.37134         0.33024
C         27.12368        14.20086         0.95751
C         27.10747        17.06971         0.67244
C         25.77812        19.19164         0.45499
C         27.00454        18.54287         0.30856
C         28.38313         2.05670         0.35696
C         28.40507         3.48479         0.23479
C         29.61591         1.37362         0.58572
C         29.64208         4.18772         0.32282
C         28.45790         6.32276         0.22275
C         28.43294         7.77324         0.62572
C         29.64885         5.62431         0.25386
C         29.72045         8.51251         0.36627
C         28.42315        10.64239         0.40564
C         28.41017        12.06918         0.52640
C         29.69493         9.93018         0.38984
C         29.61397        12.82485         0.62076
C         28.37516        14.92775         0.52419
C         28.26514        16.33288        -0.01265
C         29.57914        14.25544         0.53230
C         29.54330        17.12000         0.02556
C         28.18529        19.20183        -0.08986
C         29.45146        18.53404        -0.14623
C         30.79783         2.07286         0.73953
C         30.83464         3.48705         0.62630
C         32.03124         4.24761         0.94753
C         30.97969         6.31602         0.06295
C         30.93621         7.82010         0.25332
C         32.08421         5.59101         0.79678
C         32.12994         8.55480         0.16071
C         30.91175        10.64942         0.36061
C         30.96475        12.14650         0.58582
C         32.11880         9.94550         0.25812
C         31.84832        12.87200        -0.41499
C         30.91074        15.00072         0.42243
C         30.78236        16.47210         0.05806
C         31.81406        14.20747        -0.50724
C         31.95376        17.23950        -0.08224
C         30.65020        19.26922        -0.32593
C         31.87999        18.62103        -0.29843
O         14.17468        15.19077        -1.64123
O         11.56449        12.75018        -2.58304
O          2.42464         5.67468        -0.66083
O          6.38393         7.63207        -2.41531
O         14.04328         7.96561        -2.96408
O         24.87132        17.74492         2.26309
O         21.78655         8.09036        -2.59486
O         22.54897        16.35771         2.25643
O         17.86285        12.88588        -2.50496
O         15.95017        14.12981         1.39281
O         23.75936        12.10316         1.50692
O          6.24288        10.22589        -2.88881
O         16.85411         7.84152        -2.88331
O         19.22813         5.65850        -2.26160
O         11.00374         6.57131        -2.44545
O          2.82757        14.83075        -1.67470
O         17.70579        15.26259        -1.66334
O         18.19524        10.41858        -2.93823
O          8.95824        15.03495        -1.59633
O         14.28231        10.08719        -0.10422
O          6.51071        16.05042         1.93486
O         19.24910         4.50861         1.17414
O         24.64459         8.17061        -2.11594
O          9.51357         5.00053         1.99150
O          3.24153         3.08768        -0.77835
O         27.39243        16.95928         2.07344
H         26.62454        17.32691         2.57415
O          5.63588        12.74901        -2.70222
H          6.13876        12.20163        -3.34931
O          2.06179         9.40511        -2.57842
H          2.91128         8.97085        -2.81127
O         25.41726        16.60932        -1.05652
H         26.17989        16.33194        -1.61883
O         10.89860        15.32104         2.05883
H         11.83932        15.11935         2.31226
O         31.59057        12.31474         1.90985
H         30.99897        11.89435         2.56990
O         13.31583         2.12295        -1.16165
H         13.27609         1.15553        -1.31035
O         22.72935        10.54468        -2.66017
H         22.32504         9.88417        -3.27091
O         27.96223        16.17788        -1.44649
H         28.74887        15.78340        -1.87953
O          5.08749        12.05069         0.82573
H          4.53457        12.46881         1.51859
O         31.29247         6.14458        -1.36652
H         31.30987         5.18064        -1.54824
O          6.88213         5.21343         2.24871
H          7.67991         5.56900         2.70251
O         15.74480        11.25987        -3.15958
H         16.61132        11.54345        -3.54053
O         13.78901         4.06101         1.90713
H         13.79203         5.02379         2.08881
O          9.34269         8.37990        -3.25110
H          9.63156         7.47920        -3.53127
O          8.59180        11.05867        -3.34095
H          8.73873        10.20156        -3.80504
O         28.30991         7.74379         2.10015
H         27.48354         7.26129         2.31582
O         17.20112        16.34223         2.25547
H         16.80946        15.41288         2.20742
O         31.52281        15.01860         1.73343
H         31.67337        14.07714         2.00715
O         22.22278         0.24467         0.79609
H         22.26908         0.62094         1.69868
O         16.24224        11.62474         0.47468
H         16.11253        12.45095         1.04417
O         27.15036        14.18300         2.43211
H         26.31588        13.76620         2.73690
O         13.57789        15.27772         1.93384
H         14.46957        14.77996         1.91155
O          3.13216         4.65231         2.61445
H          3.03994         3.80756         3.10323
O          6.72173         3.23217        -0.81184
H          5.95983         2.79112        -1.24424
H          0.51166         1.82065         2.16813
H          0.55764         3.89470         0.57470
H          2.70369         0.71342         2.37355
H          0.45613         6.64244         1.84264
H          0.30124         8.76341         0.56922
H         -0.06268        10.11519        -1.02161
H         -0.01267        12.51383        -0.61886
H         -0.01566        14.40765        -0.03354
H          0.08097        16.78292         0.49997
H          1.35013        18.88407         0.88426
H          5.13913         1.12803         2.64235
H          3.50969        20.01981         1.32869
H          7.53766         1.11762         2.48286
H          5.97032        19.98965         1.40270
H          9.96252         0.96704         1.90621
H          8.49773        19.97805         1.36064
H         12.29939         0.77366         1.31383
H         10.93553        19.90940         1.40401
H         14.85024         0.63366         0.87701
H         13.36704        19.95287         1.36580
H         17.26458         0.57823         0.76438
H         15.84143        20.09443         1.17489
H         19.74615         0.49792         0.53484
H         18.31900        20.15179         1.21635
H         22.12692         0.85351        -1.16063
H         20.76611        20.21550         1.20545
H         24.64940         0.31946         0.21773
H         23.22668        20.27148         0.89740
H         27.12376         0.28465         0.39691
H         25.68664        20.24634         0.14998
H         29.60852         0.27780         0.67617
H         28.15863        20.28725        -0.27558
H         31.72878         1.53286         0.96612
H         32.88406         3.70353         1.38168
H         32.99452         6.14103         1.07746
H         33.08656         8.02984         0.03194
H         33.06839        10.49889         0.24769
H         32.51345        12.27758        -1.05989
H         32.46798        14.73714        -1.21756
H         32.93444        16.74812        -0.01728
H         30.60015        20.35880        -0.46433
H         32.80535        19.20090        -0.42180
