         314
 CSIRO Nanostructure Databank - Neutral Graphene Oxide Data Set
C         30.42002        56.94767        -0.58159
C         30.39603        58.36497        -0.82732
C         29.17946        59.04691        -1.08599
C         30.36760        61.15703        -1.30440
C         29.17993        60.41967        -1.32643
C         32.87238        52.70745         0.39229
C         32.53306        53.86786        -0.28888
C         31.47452        54.79520        -0.12382
C         32.88964        56.92321        -0.41528
C         31.58288        56.18246        -0.46222
C         32.85977        58.43571        -0.51332
C         31.59668        59.11491        -0.83423
C         32.82795        61.27395        -0.92755
C         31.60375        60.51712        -1.05668
C         35.41865        48.57063         0.93925
C         35.42876        49.98840         0.78221
C         34.23472        50.70851         0.61421
C         35.44021        52.80639         0.20428
C         34.19253        52.09454         0.33053
C         35.55703        54.22142        -0.12993
C         34.43943        54.93699        -0.70440
C         35.43338        57.09420        -0.32696
C         34.22911        56.28147        -0.51891
C         35.29620        58.55958        -0.10591
C         34.14302        59.16569        -0.88143
C         35.27097        61.39364        -0.53060
C         34.06396        60.66946        -0.72380
C         37.86190        44.30127         1.18272
C         37.81933        45.68341         1.37806
C         36.62663        46.44157         1.22642
C         37.80996        48.63147         1.53937
C         36.58162        47.85237         1.24076
C         37.88144        50.07350         1.17551
C         36.66779        50.72310         0.82068
C         37.85928        52.85236         0.83975
C         36.65545        52.12843         0.58454
C         37.78199        54.31036         0.96235
C         36.64956        54.96811         0.31329
C         37.86225        57.22253         0.57378
C         36.72162        56.41088         0.08090
C         37.82386        58.66115         0.40554
C         36.52596        59.34931         0.17164
C         37.71732        61.48258        -0.14165
C         36.50672        60.78793        -0.19123
C         40.24267        40.02808         0.54219
C         40.27608        41.42486         0.67292
C         39.07472        42.16802         0.85389
C         40.34436        44.25023         1.03274
C         39.08885        43.56181         1.05492
C         40.38581        45.66802         1.40654
C         39.08723        46.38436         1.68990
C         40.32213        48.62216         1.33958
C         39.08383        47.88253         1.74343
C         40.36133        50.08798         1.73463
C         39.08440        50.78701         1.28357
C         40.30886        52.97755         1.27382
C         39.07894        52.20902         1.14495
C         40.33656        54.36843         1.15670
C         39.06928        55.11795         1.16458
C         40.29782        57.28462         0.90780
C         39.05809        56.57011         0.86804
C         40.24805        58.80171         1.03867
C         38.97029        59.41972         0.51839
C         40.15636        61.53720         0.06785
C         38.95431        60.83667         0.18225
C         42.67132        35.62894        -0.40982
C         42.61771        37.12571        -0.15491
C         41.48385        37.78126         0.18571
C         42.75353        40.01788         0.33272
C         41.46832        39.23543         0.50952
C         42.72672        41.48733         0.27608
C         41.52806        42.15777         0.56590
C         42.79557        44.29923         0.61323
C         41.55135        43.57996         0.72937
C         42.77978        45.73414         0.83575
C         41.62244        46.41820         1.12393
C         42.84178        48.66951         0.89572
C         41.58613        47.89495         1.04084
C         42.79269        50.11848         0.94364
C         41.61516        50.78477         1.25318
C         42.88509        53.01174         1.14279
C         41.58644        52.24580         1.41730
C         42.80344        54.46402         0.88718
C         41.56342        55.12396         0.98129
C         42.77530        57.31301         0.86487
C         41.49686        56.57353         0.90713
C         42.75643        58.85677         0.68120
C         41.47447        59.51919         0.54558
C         42.63887        61.61070        -0.02295
C         41.43677        60.88854         0.18982
C         45.23232        33.08279         0.93082
C         43.97612        33.72205         0.63005
C         45.13228        35.84932         0.24912
C         43.91713        35.01859         0.20453
C         45.17713        37.09620        -0.61096
C         43.86850        37.87136        -0.49628
C         45.20362        40.07079        -0.28399
C         43.91476        39.34426        -0.31071
C         45.17292        41.45232        -0.13533
C         43.94558        42.18477         0.06961
C         45.19818        44.32168        -0.11947
C         43.97819        43.61270         0.20393
C         45.17786        45.79874         0.04751
C         44.02304        46.51667         0.67449
C         45.19780        48.72546         0.15433
C         44.00114        48.00028         0.56855
C         45.18415        50.11154         0.14230
C         44.01744        50.84740         0.60320
C         45.29393        52.97993         0.42737
C         44.03533        52.23787         0.65115
C         45.25319        54.45066         0.28890
C         44.00952        55.17829         0.55860
C         45.13702        57.30069        -0.05408
C         43.97130        56.56709         0.45832
C         45.13073        58.80251        -0.14655
C         43.94206        59.56616         0.22378
C         45.12375        61.68326        -0.25883
C         43.91779        60.97139        -0.01084
C         46.42394        33.72963         0.80993
C         47.69052        35.84401         0.09229
C         46.46851        35.17056         0.54957
C         47.69189        37.19936        -0.22110
C         46.42657        37.92502        -0.34660
C         47.69556        40.06621        -0.67753
C         46.42314        39.30580        -0.37079
C         47.73603        41.45972        -0.06741
C         46.44139        42.20331         0.01327
C         47.70351        44.30057        -0.47911
C         46.43112        43.66093        -0.25941
C         47.79024        45.56218        -1.08586
C         46.02458        46.66379        -0.76388
C         47.50502        48.61839        -1.09147
C         46.26141        47.98810        -0.52677
C         47.53029        50.12483        -1.03587
C         46.23605        50.87734        -0.65323
C         47.66430        52.96877        -0.60043
C         46.51212        52.23561        -0.04151
C         47.55429        54.41178        -0.70607
C         46.38866        55.10780        -0.11888
C         47.69288        57.33238        -0.32292
C         46.44424        56.58252        -0.01797
C         47.64511        58.80662        -0.56835
C         46.43004        59.52944        -0.08186
C         47.73549        61.71810        -0.32787
C         46.43427        61.05357        -0.10584
C         48.93266        37.90830        -0.33314
C         50.16856        40.04579        -0.40030
C         48.97984        39.30663        -0.41142
C         50.19444        41.48686        -0.44058
C         48.98701        42.19512        -0.24542
C         50.20816        44.33114        -0.49560
C         48.97950        43.66759         0.07202
C         50.14343        45.69159        -1.00182
C         48.88458        46.45389        -1.00331
C         50.01949        48.63601        -1.25149
C         48.82743        47.88439        -1.12989
C         50.04741        50.09396        -1.15142
C         48.84217        50.82237        -0.97622
C         50.09230        52.96370        -1.05972
C         48.85537        52.25735        -0.90412
C         50.10710        54.42575        -1.19261
C         48.84383        55.21851        -1.05607
C         50.14564        57.31854        -0.54727
C         48.92804        56.63115        -0.71675
C         50.17306        58.75788        -0.37996
C         48.94173        59.54797        -0.58467
C         50.20783        61.62930        -0.14960
C         48.93708        61.01440        -0.32699
C         51.42074        42.20456        -0.50146
C         52.65027        44.35849        -0.79859
C         51.42744        43.62322        -0.62207
C         52.67954        45.74551        -0.99250
C         51.41018        46.42161        -1.34376
C         52.62039        48.65033        -1.43944
C         51.31608        47.91769        -1.49072
C         52.58716        50.14355        -1.32974
C         51.29075        50.82964        -1.15465
C         52.57146        52.96650        -0.75883
C         51.32145        52.24815        -1.05632
C         52.58464        54.35906        -0.50832
C         51.41613        55.17284        -0.86616
C         52.53068        57.21187         0.03053
C         51.36421        56.58679        -0.47046
C         52.55339        58.65957         0.18070
C         51.35572        59.41984        -0.08339
C         52.62866        61.51087         0.27877
C         51.39284        60.87707        -0.00075
C         53.85840        46.51475        -0.90870
C         55.01684        48.63311        -0.70636
C         53.86350        47.92381        -1.03784
C         55.06250        50.05877        -0.57644
C         53.86653        50.85637        -0.95416
C         54.93101        52.89826        -0.01694
C         53.77936        52.25502        -0.50740
C         54.95321        54.29058         0.20292
C         53.73866        55.02272        -0.00197
C         54.85736        57.05427         0.86705
C         53.67727        56.42455         0.28813
C         54.92217        58.57169         0.88124
C         53.73936        59.33046         0.45999
C         55.03560        61.40407         0.86663
C         53.81183        60.77519         0.50161
C         56.16237        50.68462        -0.05447
C         57.38654        52.89922        -0.32319
C         56.20181        52.13893         0.30460
C         57.47276        54.28390         0.30544
C         56.20826        54.96528         0.56219
C         57.23466        57.08409         1.41114
C         56.12821        56.31468         0.91968
C         57.40707        58.44839         1.21906
C         56.25976        59.23188         0.63336
C         57.45030        61.26953         1.41816
C         56.24230        60.68867         1.03886
C         58.73990        54.83420         0.37847
C         60.02765        57.02010         0.74832
C         59.05969        56.07578         1.03095
C         59.93263        58.39525         1.18982
C         58.68263        59.09048         1.35312
C         59.90354        61.21544         1.58587
C         58.68184        60.52798         1.46175
C         61.12869        59.15873         1.23310
C         61.11648        60.52653         1.48162
O         54.69155        57.85061         2.11797
O         46.67850        46.02058        -1.80978
O         47.31604        49.41308        -2.31230
O         42.96349        58.19225         2.03696
O         32.88795        57.79736         0.79317
O         46.56382        60.21947         1.16530
O         33.43612        54.19736        -1.32099
O         47.83936        54.91682        -2.07002
O         46.33243        52.45022         1.38580
O         40.62440        48.34137        -0.05846
O         47.14148        41.77073         1.26408
O         35.51822        59.03162         1.23604
O         50.96997        54.93193        -2.25096
O         47.66502        40.28072        -2.07480
O         53.45638        50.73761        -2.35732
O         38.37062        48.39624         2.90538
O         48.19590        59.21681        -1.83699
O         45.17487        46.11410         1.49477
O         42.45380        52.68980         2.51068
O         43.64177        38.76772        -1.64780
O         42.39444        39.51017         1.65300
O         50.71034        45.73275        -2.40290
O         45.73108        35.99532         1.55450
O         39.86043        45.84334         2.80173
O         47.32377        57.02240         1.08997
O         44.90928        57.97190        -1.35539
O         38.17676        54.80488         2.28766
O         58.21800        56.38862         2.12366
O         36.45092        56.78592        -1.34108
O         52.03597        48.26525        -2.72852
O         42.70897        35.40707        -1.83017
H         43.56448        35.77578        -2.16464
O         56.40645        59.20791        -0.82408
H         57.21144        59.71948        -1.05174
O         45.56690        51.21622        -1.90236
H         45.81607        50.51690        -2.55429
O         56.42774        52.21070         1.74140
H         55.67891        51.76973         2.19326
O         40.40784        50.15719         3.18118
H         39.61034        49.68293         3.52264
O         49.00461        43.82660         1.52917
H         48.30977        43.21878         1.88426
O         34.36177        58.89060        -2.29011
H         35.17669        59.35159        -2.57909
O         40.26065        59.05270         2.49455
H         41.14219        58.74656         2.81928
O         57.22991        52.99619        -1.73963
H         56.35610        53.39547        -1.93378
O         45.26276        36.63138        -1.99137
H         45.17730        37.43121        -2.55940
H         29.45105        56.42557        -0.54939
H         28.23491        58.48458        -1.09580
H         30.34304        62.24390        -1.46755
H         28.22910        60.93480        -1.52276
H         32.13835        52.23277         1.06118
H         30.52905        54.45535         0.32786
H         32.75771        62.37286        -0.92909
H         34.47281        48.02930         0.78819
H         33.28130        50.16522         0.69178
H         35.24189        62.49020        -0.63097
H         36.91745        43.75734         1.02972
H         35.69748        45.89850         0.99478
H         37.73980        62.55060        -0.40646
H         39.27141        39.51593         0.46950
H         38.11571        41.62990         0.88253
H         40.13344        62.60212        -0.20689
H         41.75337        35.12908        -0.01387
H         40.54938        37.21699         0.33502
H         42.58108        62.69043        -0.22300
H         45.21876        32.00799         1.16108
H         43.06422        33.10700         0.63449
H         45.07311        62.73761        -0.56628
H         47.37199        33.17732         0.88753
H         48.64333        35.29378         0.13528
H         47.76059        62.81829        -0.29596
H         49.87091        37.33058        -0.32309
H         51.12693        39.52146        -0.25178
H         50.25723        62.72270        -0.03442
H         52.36905        41.65217        -0.56463
H         53.60094        43.81650        -0.68569
H         52.65878        62.60871         0.34976
H         54.80316        46.01137        -0.65382
H         55.91498        48.06590        -0.41750
H         55.03779        62.49332         1.02872
H         57.03789        50.08115         0.23180
H         58.33574        52.34153        -0.13287
H         57.48911        62.35094         1.62335
H         59.56183        54.28326        -0.10722
H         60.86861        56.75730         0.08857
H         59.89829        62.30635         1.72194
H         62.08890        58.64154         1.09408
H         62.06442        61.07684         1.55741
