         244
 CSIRO Nanostructure Databank - Neutral Graphene Oxide Data Set
C          1.33650         1.88299         1.47298
C          1.30340         3.21943         1.88487
C          2.53209         1.34227         1.02073
C          2.46892         3.98975         1.77925
C          1.17730         6.72972         0.74502
C          1.11939         7.62948        -0.32827
C          2.41047         6.18697         1.11898
C          2.32519         8.11019        -0.83072
C          1.39033        11.16227        -1.82839
C          1.35959        12.48538        -1.32971
C          2.42160        10.29222        -1.46930
C          2.32176        12.91266        -0.44481
C          1.09057        15.11669        -0.11107
C          1.11866        16.42895        -0.38054
C          2.31021        14.28327         0.20938
C          2.38984        17.15188        -0.63125
C          2.47244        18.61374        -0.45298
C          3.71585         2.12299         0.95796
C          3.68278         3.51393         1.26779
C          4.94931         1.46796         0.68053
C          4.95112         4.37865         1.32338
C          3.63336         6.52165         0.49062
C          3.58187         7.69270        -0.33898
C          4.88687         5.78042         0.65155
C          4.77381         8.48776        -0.52556
C          3.54209        10.68420        -0.69332
C          3.47295        12.04838        -0.15207
C          4.75698         9.90165        -0.53212
C          4.80860        12.77183         0.15485
C          3.64149        14.95290        -0.09446
C          3.67490        16.37422        -0.48510
C          4.81824        14.25239         0.02057
C          4.93135        17.10812        -0.29081
C          3.66728        19.24627        -0.36646
C          4.93319        18.53010        -0.32116
C          6.16024         2.15991         0.69626
C          6.17563         3.60616         0.84807
C          7.36444         1.44638         0.46465
C          7.35305         4.27828         0.60087
C          6.05024         6.37297         0.20381
C          6.01571         7.64205        -0.65204
C          7.34871         5.71313         0.34528
C          7.31060         8.45430        -0.59830
C          6.00023        10.64777        -0.30428
C          6.03927        12.00753        -0.08962
C          7.30662         9.89991        -0.12095
C          7.32593        12.73027         0.26710
C          6.10632        14.93188        -0.06666
C          6.12651        16.37799        -0.13706
C          7.30408        14.22325         0.01395
C          7.36251        17.07898        -0.06401
C          6.14840        19.21647        -0.21412
C          7.37549        18.51466        -0.10149
C          8.60484         2.09607         0.37903
C          8.61348         3.55731         0.43144
C          9.80398         1.38235         0.19888
C          9.80208         4.23483         0.37756
C          8.55068         6.36061         0.13529
C          8.59529         7.75757        -0.30654
C          9.82786         5.72359         0.63159
C          9.83697         8.55144        -0.13443
C          8.52745        10.65114        -0.71657
C          8.57897        12.08297        -0.25480
C          9.82363         9.92582        -0.39081
C          9.77282        12.77478        -0.24944
C          8.55901        14.91973         0.01696
C          8.58170        16.35356         0.01695
C          9.78859        14.21207        -0.02790
C          9.81584        17.05221         0.10621
C          8.61364        19.19503        -0.03287
C          9.82602        18.48951         0.07848
C         11.06872         2.03622         0.10995
C         11.10697         3.49669         0.50072
C         12.22730         1.34507        -0.17164
C         12.25625         4.25901        -0.10739
C         11.10180         6.43435         0.20598
C         11.07130         7.85728         0.01019
C         12.31463         5.73107         0.13254
C         12.28016         8.56933        -0.23806
C         11.04385        10.64511        -0.50580
C         11.03168        12.09052        -0.49882
C         12.27891         9.93717        -0.52005
C         12.23264        12.80825        -0.47623
C         11.02772        14.90772         0.03989
C         11.04533        16.34075         0.20046
C         12.25212        14.19543        -0.13452
C         12.27073        17.03711         0.41562
C         11.07639        19.16093         0.10282
C         12.29212        18.49128         0.29665
C         13.52096         1.99490        -0.59437
C         13.49840         3.52046        -0.44227
C         14.80342         1.36643        -0.09805
C         14.79893         4.18572        -0.02660
C         13.56666         6.39150        -0.01898
C         13.55980         7.86534        -0.04330
C         14.78857         5.69085        -0.18891
C         14.83035         8.59414        -0.30470
C         13.46029        10.65062        -1.16998
C         13.51422        12.13561        -0.80657
C         14.86368         9.90599        -1.09583
C         14.80112        12.83398        -0.47836
C         13.48769        14.86952         0.13776
C         13.45342        16.23464         0.56015
C         14.74137        14.19779         0.09014
C         14.65923        16.75265         1.09109
C         13.50284        19.26430         0.12961
C         14.72680        18.88289         0.68660
C         15.99323         2.01110        -0.25152
C         15.98865         3.46841        -0.69067
C         17.26994         1.32504        -0.18719
C         17.26268         4.20288        -0.38222
C         16.02339         6.35548        -0.32184
C         16.08451         7.79392        -0.37993
C         17.27121         5.59470        -0.34792
C         17.27387         8.47671        -0.31148
C         16.07198        10.70504        -0.59932
C         16.05140        12.04665        -0.31024
C         17.38459         9.94227        -0.66943
C         17.23624        12.77243         0.09801
C         15.94826        14.84994         0.41604
C         15.90929        16.17430         0.92554
C         17.21207        14.13586         0.36737
C         17.12623        16.96514         1.37262
C         16.04422        19.14852         0.29534
C         17.17540        18.41644         0.81570
C         18.46611         1.99204        -0.20994
C         18.48830         3.47081         0.07957
C         19.73204         1.31307        -0.35080
C         19.76686         4.17686        -0.29253
C         18.52504         6.28687        -0.24521
C         18.51632         7.73412        -0.04197
C         19.77369         5.60208        -0.29957
C         19.82373         8.47704         0.01227
C         18.57575        10.61439        -0.02832
C         18.50268        12.03459         0.45992
C         19.79014         9.96449        -0.02827
C         19.73546        12.80103        -0.04845
C         18.43925        14.88266         0.61970
C         18.42369        16.25166         1.01744
C         19.69001        14.26090         0.35801
C         19.62126        16.97413         1.06546
C         18.37867        19.06526         0.89518
C         19.58118        18.41187         1.54400
C         20.90802         1.99674        -0.44693
C         20.95307         3.44699        -0.43952
C         22.17523         4.15482        -0.59989
C         21.02718         6.30898        -0.39163
C         21.07453         7.75181        -0.28482
C         22.20682         5.53805        -0.55453
C         22.23060         8.51902        -0.35850
C         21.05864        10.65247         0.06380
C         21.05260        12.13622         0.39258
C         22.22070         9.92557        -0.12409
C         22.19636        12.96240        -0.15243
C         20.88132        14.99116         0.30631
C         20.85761        16.39358         0.62481
C         22.09899        14.30852        -0.13038
C         22.00106        17.20853         0.49341
C         20.81459        19.19484         1.21800
C         21.94505        18.60365         0.73044
O         14.60371        17.97292         1.77480
O          2.31809         8.98412        -1.94287
O         12.65552         4.06231        -1.51580
O         19.16651         8.05366         1.27550
O         14.26945        12.83481        -1.87283
O          2.40579         5.32108         2.23137
O          3.99918        12.19353         1.22767
O         14.32064         8.58211         1.05594
O          3.07727        16.63834        -1.82727
O          8.14679         8.08311        -1.73871
O         19.41979        18.44514         2.99143
H         18.59289        17.93824         3.20092
O         13.58460         1.76073        -2.05380
H         12.89019         2.34287        -2.44514
O          7.50884         9.79274         1.31328
H          7.41405        10.69839         1.70565
O         17.05082        17.07893         2.82493
H         16.20130        17.54050         3.01660
O          8.38701        10.70385        -2.16010
H          8.45628         9.77537        -2.48874
O          5.17756         4.64439         2.74094
H          4.37213         5.10076         3.07394
O         18.42241         3.54834         1.55929
H         18.41947         4.49889         1.80566
O          7.40934        12.57645         1.74896
H          8.20033        13.07504         2.04912
O         14.92152         3.92657         1.39892
H         14.19652         4.39391         1.86568
O          5.88221         7.09664        -2.00596
H          6.78951         7.09580        -2.39867
O         11.43017         3.52263         1.94797
H         10.80820         2.90619         2.39245
O         15.18585         9.45744        -2.44128
H         14.41180         9.70821        -3.01294
O         19.72978        12.74272        -1.49270
H         18.84353        13.01541        -1.81052
O         13.05517        10.66094        -2.57475
H         13.34284        11.52679        -2.94842
O         17.76218         9.92341        -2.09637
H         16.93843         9.68358        -2.59524
O          9.82084         5.87057         2.09904
H         10.51528         5.25758         2.43965
O         21.14089        12.21926         1.85104
H         21.94708        11.73894         2.13397
O         18.48790        11.98823         1.91107
H         19.41724        11.86976         2.22601
O         15.81120         3.49709        -2.12825
H         15.07909         2.86367        -2.34701
O          2.23505        14.11664         1.65417
H          2.89329        13.41751         1.90061
H          0.43237         1.26208         1.53402
H          0.38817         3.66888         2.29033
H          2.58825         0.27967         0.74542
H          0.26432         6.40113         1.25721
H          0.16067         7.98154        -0.72859
H          0.59083        10.80007        -2.48610
H          0.52848        13.14806        -1.60863
H          0.12034        14.62741         0.06557
H          0.17905        16.99494        -0.48087
H          1.53428        19.18485        -0.38476
H          4.94632         0.38418         0.49405
H          3.70038        20.34140        -0.26403
H          7.31853         0.35152         0.36797
H          6.15690        20.31646        -0.22773
H          9.76035         0.29113         0.06412
H          8.62855        20.29421        -0.07240
H         12.14900         0.26335        -0.36805
H         11.08641        20.25432        -0.01809
H         14.78369         0.30032         0.17654
H         13.45030        20.15995        -0.50744
H         17.26221         0.22368        -0.23106
H         16.24530        19.97917        -0.39804
H         19.72729         0.21454        -0.41839
H         18.45911        20.10660         0.54549
H         21.85501         1.45059        -0.56835
H         23.10944         3.59014        -0.73209
H         23.17661         6.04746        -0.64192
H         23.20139         8.04439        -0.55927
H         23.19163        10.44313        -0.12234
H         23.12838        12.47990        -0.48205
H         22.95652        14.91439        -0.45763
H         22.95184        16.77412         0.15742
H         20.80356        20.27263         1.43742
H         22.84415        19.20774         0.53940
