         762
 CSIRO Nanostructure Databank - Neutral Graphene Oxide Data Set
C         22.50239        25.05499         1.09311
C         21.59491        25.64272         0.20911
C         23.17132        27.48656        -0.16150
C         21.92728        26.85254        -0.38476
C         23.36244        28.82978        -0.68127
C         22.39442        29.56553        -1.35643
C         23.49083        31.74028        -0.98389
C         22.44605        30.97865        -1.48871
C         23.36542        33.16839        -0.66833
C         22.23591        33.94977        -1.02469
C         23.00272        35.87433         0.27183
C         22.10678        35.29101        -0.65327
C         23.05637        37.31099         0.61794
C         21.84365        38.02530         0.65688
C         23.01646        40.13664         0.89507
C         21.82112        39.39788         0.87046
C         23.00428        41.60271         1.07353
C         21.75679        42.38618         1.14507
C         22.88457        44.51075         0.59365
C         21.74975        43.74692         1.04019
C         22.87061        45.91486         0.40523
C         21.70654        46.70866         0.65447
C         22.93289        48.76273         0.19491
C         21.74603        48.08143         0.56576
C         25.63043        23.03398         1.66872
C         25.65077        24.42720         1.68381
C         23.74955        25.65100         1.28272
C         25.50974        27.42503         0.88017
C         24.18377        26.83028         0.62556
C         25.58639        28.82093         0.55151
C         24.63967        29.47840        -0.39539
C         25.84601        31.77636         0.01473
C         24.70790        31.01246        -0.59069
C         25.70101        33.24765         0.34525
C         24.33624        33.79599         0.16060
C         25.80990        36.10900         1.25363
C         23.99609        35.01474         0.75900
C         25.60775        37.40844         0.79257
C         24.28569        38.03686         0.74108
C         25.45508        40.21281         0.33399
C         24.25599        39.46524         0.71583
C         25.40769        41.57835         0.09229
C         24.25380        42.34495         0.60167
C         25.35013        44.51334        -0.20326
C         24.05626        43.75018         0.15584
C         25.31366        45.94672        -0.03535
C         24.09526        46.62002         0.07602
C         25.31587        48.69981        -0.57531
C         24.09822        48.05731        -0.05426
C         25.21451        49.90665        -1.29172
C         27.97141        23.00254         1.04390
C         26.76997        22.32386         1.27963
C         27.98025        24.44425         1.09691
C         26.76608        25.19823         1.27024
C         28.03041        27.28289         1.21852
C         26.73136        26.66471         1.20890
C         28.24758        28.67110         1.56589
C         26.52336        29.68338         1.13432
C         28.00910        31.65250         1.25319
C         26.85606        31.00443         0.74461
C         27.88052        33.05812         1.45877
C         26.80882        33.87850         1.12970
C         28.16684        36.03123         0.69242
C         26.99365        35.34116         1.11190
C         28.02673        37.40007         0.27466
C         26.77754        38.10156         0.35259
C         27.78582        40.13065        -0.56267
C         26.68119        39.49183         0.02963
C         27.84995        41.60068        -0.83529
C         26.55509        42.32447        -0.50017
C         27.83041        44.43149        -0.18377
C         26.62707        43.78054        -0.23301
C         27.87473        45.90982         0.00568
C         26.58914        46.68174         0.06830
C         27.76565        48.62577        -1.00107
C         26.57781        48.06471        -0.45227
C         27.55008        49.72518        -1.86028
C         26.32193        50.38510        -1.98123
C         30.48057        20.20137         0.22307
C         29.25543        20.91301         0.44461
C         30.48661        22.90939         1.11413
C         29.20650        22.23727         0.83142
C         30.48446        24.40187         1.19876
C         29.22332        25.13945         1.03355
C         30.48521        27.26027         0.77594
C         29.24396        26.54204         1.03897
C         30.42147        28.73382         0.53420
C         29.32846        29.45815         1.21832
C         30.62285        31.74168         0.87790
C         29.32973        30.95546         1.35671
C         30.65106        33.20719         0.52402
C         29.69730        34.09843         1.03547
C         30.50049        35.95073        -0.28682
C         29.45402        35.37730         0.48020
C         30.36548        37.34658        -0.77202
C         29.08590        38.02681        -0.45200
C         30.68371        40.40042        -1.33884
C         28.83068        39.28473        -0.98828
C         30.50221        41.88035        -1.31886
C         29.14748        42.38454        -0.72504
C         30.28127        44.47918         0.18533
C         29.08585        43.72126        -0.38414
C         30.31711        45.97830        -0.09387
C         29.11224        46.65883        -0.34342
C         30.36161        48.71372        -0.81277
C         29.09845        48.01527        -0.75344
C         30.49674        50.08983        -1.28074
C         29.55403        50.79451        -2.02897
C         30.38539        52.99642        -1.40842
C         29.44520        52.21805        -2.02648
C         33.06453        18.66215        -0.11604
C         32.99741        20.06576         0.11438
C         31.72911        20.77997         0.32335
C         32.97078        23.00827         0.43822
C         31.78784        22.18654         0.79253
C         32.97306        24.38054         0.50515
C         31.78353        25.15016         0.96182
C         32.90373        27.25275         0.16396
C         31.67612        26.58480         0.63863
C         32.89057        28.69229        -0.21127
C         31.64530        29.48212         0.08894
C         32.91064        31.58036        -0.04657
C         31.76818        30.94321         0.33725
C         32.90533        33.00791        -0.43350
C         31.68617        33.80719        -0.24185
C         32.91831        35.92482        -0.95706
C         31.67560        35.20058        -0.53642
C         32.95932        37.43758        -0.93238
C         31.65115        38.16340        -1.01906
C         32.95393        40.33346        -0.41978
C         31.73638        39.65309        -0.89762
C         32.95790        41.75395        -0.34068
C         31.76665        42.53677        -0.76680
C         32.78209        44.50402         0.54255
C         31.64264        43.90752        -0.20034
C         32.68968        46.00944         0.66581
C         31.50822        46.70380         0.08141
C         32.77379        48.83454        -0.05847
C         31.54018        48.08438        -0.26590
C         32.85443        50.18429        -0.34760
C         31.73246        50.84577        -1.03299
C         32.74480        53.17323        -0.39796
C         31.67550        52.39668        -1.10732
C         32.87252        54.62305        -0.56870
C         35.51658        18.70520        -0.23995
C         34.27219        18.01572        -0.30295
C         35.47788        20.10676         0.01338
C         34.21334        20.76773         0.17495
C         35.50326        22.98158         0.25240
C         34.19353        22.24859         0.11202
C         35.53260        24.47403         0.35643
C         34.20475        25.16962         0.29878
C         35.41863        27.33370         0.44375
C         34.19572        26.62570         0.47767
C         35.45803        28.68247         0.09148
C         34.22068        29.37494        -0.30992
C         35.43973        31.57007         0.13959
C         34.19778        30.86894        -0.32779
C         35.38473        33.06580         0.12409
C         34.21383        33.73735        -0.50416
C         35.41143        35.98397        -0.20819
C         34.24016        35.22527        -0.71335
C         35.40423        37.37021        -0.10922
C         34.21451        38.16712        -0.50829
C         35.33967        40.28539         0.24777
C         34.14348        39.61384        -0.15231
C         35.34529        41.72414         0.38167
C         34.12232        42.45219         0.12671
C         35.28683        44.60252         0.68184
C         34.09250        43.84533         0.42624
C         35.24290        45.99123         0.87746
C         33.97340        46.73646         0.86813
C         35.32001        48.85320         0.33177
C         33.99020        48.21195         0.54334
C         35.28948        50.25225        -0.00351
C         34.08783        50.92129        -0.18952
C         35.25668        53.18836         0.00762
C         34.02414        52.40074        -0.06630
C         35.22611        54.55869         0.10815
C         34.00422        55.26998        -0.16611
C         38.03523        15.94002        -0.66988
C         36.86815        16.62110        -0.56113
C         37.99552        18.80467        -0.36083
C         36.79813        18.06335        -0.43424
C         37.96771        20.18163         0.04662
C         36.71906        20.80437         0.17849
C         37.93838        22.91597         1.05911
C         36.68082        22.18887         0.67662
C         37.93204        24.40982         1.29515
C         36.66845        25.17487         1.03298
C         37.99925        27.31351         0.63895
C         36.66434        26.71380         1.06660
C         38.00084        28.69911         0.36225
C         36.77162        29.38033        -0.19498
C         37.92837        31.56868         0.24787
C         36.74202        30.85821         0.14699
C         37.87494        33.04882         0.08055
C         36.62626        33.83670         0.19154
C         37.81516        35.96657         0.48790
C         36.59291        35.21524         0.14115
C         37.81909        37.43098         0.43082
C         36.59664        38.11697         0.25924
C         37.75308        40.19006         0.92789
C         36.53873        39.53090         0.43327
C         37.76154        41.73539         1.06921
C         36.52729        42.44911         0.69213
C         37.76788        44.56209         0.97485
C         36.54928        43.87455         0.74248
C         37.77235        46.02610         1.23962
C         36.44742        46.81012         1.30647
C         37.78937        48.88811         0.51338
C         36.50954        48.19005         0.62244
C         37.82092        50.28317         0.18746
C         36.56221        50.98318        -0.14015
C         37.78429        53.22987         0.13687
C         36.53966        52.48970        -0.16414
C         37.76996        54.54572         0.44996
C         36.47662        55.36435         0.40807
C         37.92949        57.05462        -0.66974
C         36.75043        56.41926        -0.65518
C         40.67515        14.52744        -0.83372
C         40.58507        15.87908        -0.64906
C         39.31763        16.63371        -0.86047
C         40.54194        18.86361        -0.34512
C         39.29104        18.15379        -0.66588
C         40.48237        20.30756        -0.12211
C         39.19488        20.94315         0.28400
C         40.43349        23.03631         0.99259
C         39.20392        22.25559         0.74389
C         40.51902        24.39503         1.13437
C         39.24704        25.19015         1.47856
C         40.42260        27.31569         0.95201
C         39.20312        26.59584         0.87610
C         40.29079        28.70883         1.04229
C         39.17675        29.46334         0.58418
C         40.44292        31.66311         0.22679
C         39.21291        30.90709         0.38497
C         40.42306        33.08394         0.08235
C         39.14464        33.80344         0.03306
C         40.35557        35.99781         0.21218
C         39.13206        35.23410         0.44165
C         40.32727        37.39937         0.40787
C         39.06707        38.11732         0.59621
C         40.27040        40.24729         1.08896
C         39.04078        39.49887         0.81760
C         40.29111        41.72772         1.02575
C         39.05362        42.45465         1.02064
C         40.27692        44.62430         1.13426
C         39.00996        43.86629         1.01071
C         40.31678        46.04792         0.76533
C         39.06640        46.78484         1.00013
C         40.26512        48.88377         0.42610
C         39.02531        48.21914         0.66105
C         40.25882        50.29869         0.24056
C         39.01926        50.99471         0.14225
C         40.29281        53.12993         0.43056
C         39.05048        52.48036        -0.20627
C         40.31263        54.63203         0.31757
C         39.04665        55.31043         0.82192
C         40.26784        57.49623         0.14227
C         38.94049        56.82569         0.43772
C         40.27368        58.88636        -0.02561
C         43.01540        14.45366        -0.11688
C         41.88078        13.80952        -0.52558
C         43.05791        15.89076        -0.01716
C         41.74669        16.59732        -0.07455
C         43.04824        18.79234         0.44381
C         41.70649        18.09882         0.11857
C         43.06765        20.28841         0.13622
C         41.75964        21.01862         0.25639
C         43.61483        23.32229         1.37409
C         41.47280        22.00973         1.33227
C         43.13873        24.47426         0.77851
C         41.87094        25.16574         1.37257
C         42.91477        27.41231         0.16033
C         41.78286        26.67526         0.95188
C         42.83378        28.85805        -0.24510
C         42.02630        29.73352         0.45972
C         42.82053        31.76070        -0.57065
C         41.73157        31.06583         0.04238
C         42.77070        33.20378        -0.59866
C         41.57081        33.85678        -0.19361
C         42.71488        36.04228        -0.43985
C         41.52605        35.30393        -0.16784
C         42.72271        37.46442        -0.18469
C         41.54337        38.10440         0.29775
C         42.78750        40.27873         0.45890
C         41.60151        39.49002         0.76674
C         42.76201        41.67856         0.63671
C         41.53559        42.37979         0.91143
C         42.78581        44.57633         0.57490
C         41.59290        43.84844         1.04935
C         42.76524        45.99438         0.37672
C         41.51613        46.72046         0.50757
C         42.71449        48.84775         0.03039
C         41.50950        48.16135         0.33400
C         42.68511        50.28017        -0.14304
C         41.49009        50.98203         0.00214
C         42.77617        53.20020        -0.39582
C         41.47782        52.44213        -0.20337
C         42.77438        54.65245        -0.09996
C         41.49192        55.32228         0.12731
C         42.70804        57.50577         0.09171
C         41.48732        56.78563         0.13311
C         42.68560        58.90857        -0.04732
C         41.47742        59.58848        -0.14427
C         45.51781        15.98304         0.35048
C         44.24346        16.60261         0.06635
C         45.54207        18.79420        -0.08105
C         44.21593        18.08338        -0.27325
C         45.63312        20.14327         0.10965
C         44.39246        20.96976         0.26605
C         45.66816        23.08722        -0.08567
C         44.60892        22.40724         0.69820
C         45.41271        24.49382        -0.48380
C         44.03252        25.08748        -0.27312
C         45.04460        27.26536        -1.34990
C         43.90501        26.56471        -0.60815
C         45.04738        28.76246        -1.56078
C         43.80224        29.54633        -1.13999
C         44.95754        31.71851        -1.89436
C         43.89890        31.02393        -1.05991
C         45.07240        33.22998        -1.55735
C         43.89159        33.94369        -0.99251
C         45.14784        36.08452        -1.03310
C         43.88136        35.35200        -0.85234
C         45.17271        37.55449        -0.70079
C         43.92506        38.21253        -0.28761
C         45.20994        40.29873         0.00412
C         43.96415        39.59252         0.04098
C         45.21649        41.68932         0.21954
C         43.98452        42.40713         0.44853
C         45.19913        44.50216        -0.01125
C         43.95549        43.82289         0.39375
C         45.20136        45.96839        -0.26518
C         43.94910        46.70957         0.01680
C         45.15023        48.82132        -0.52864
C         43.95281        48.11210        -0.11401
C         45.00363        50.16084        -0.82313
C         43.90123        51.00799        -0.46287
C         45.30757        53.17355        -0.40711
C         44.01482        52.40857        -0.43380
C         45.28455        54.67317        -0.18636
C         43.96608        55.35548        -0.03610
C         45.14755        57.42056         0.55571
C         43.96674        56.78031         0.20315
C         46.69660        16.62581         0.17855
C         48.06102        18.73741        -0.17091
C         46.75464        17.98066        -0.49127
C         47.94990        20.15059        -0.70999
C         46.81004        20.86279        -0.41804
C         47.71529        22.92976        -1.43842
C         46.70594        22.27295        -0.77596
C         47.60101        24.38970        -1.67547
C         46.43523        25.13697        -1.12047
C         47.60398        27.32165        -1.73714
C         46.33359        26.54113        -1.59528
C         47.54536        28.78190        -1.66464
C         46.34895        29.47725        -1.66628
C         47.60786        31.74079        -1.67222
C         46.32232        30.97342        -1.86012
C         47.65447        33.20089        -1.42147
C         46.38376        33.94755        -1.43001
C         47.68819        36.02029        -0.84416
C         46.38215        35.27232        -0.67645
C         47.71944        37.39536        -0.21380
C         46.45010        38.20602        -0.37767
C         47.71927        40.28097        -0.06511
C         46.45464        39.56838        -0.13556
C         47.69793        41.70265         0.16381
C         46.48052        42.36999         0.28123
C         47.72087        44.61108         0.55888
C         46.44387        43.83056         0.45808
C         47.74957        45.99172         0.05310
C         46.53006        46.67962        -0.39938
C         47.88630        49.00280        -0.70629
C         46.51144        48.16810        -0.69458
C         47.83664        50.35472        -0.01083
C         46.85267        51.17887        -0.43548
C         47.86563        53.28275        -0.02436
C         46.54475        52.50614         0.18211
C         47.78647        54.72262         0.41527
C         46.49894        55.38251         0.34180
C         46.36655        56.71785         0.68995
C         50.30906        18.62444        -1.28574
C         49.27547        18.00984        -0.67668
C         50.30123        20.03793        -1.62333
C         48.98193        20.71382        -1.59179
C         50.09788        22.91291        -2.46363
C         48.84772        22.18194        -2.02484
C         50.09075        24.47171        -2.62477
C         48.78137        25.17614        -2.19960
C         50.08138        27.39886        -2.07145
C         48.79233        26.65870        -1.94571
C         50.14065        28.84558        -1.75376
C         48.84378        29.50063        -1.46403
C         50.11441        31.73257        -1.43677
C         48.84415        30.98899        -1.29460
C         50.11207        33.14455        -1.32740
C         48.84280        33.87053        -1.23407
C         50.14716        35.98650        -0.59094
C         48.84629        35.31937        -0.99031
C         50.15883        37.49692        -0.74237
C         48.97050        38.18776        -0.53076
C         50.15870        40.39460        -0.46206
C         48.91428        39.61040        -0.36316
C         50.17284        41.72386         0.15905
C         48.95427        42.43284         0.33062
C         50.20661        44.54721         0.85285
C         48.96769        43.81704         0.58035
C         50.24335        46.03832         0.60955
C         49.03935        46.66999        -0.02842
C         50.27418        48.81654         0.44314
C         49.09746        48.16325        -0.24672
C         50.26775        50.26281         0.82115
C         48.99215        51.02807         0.66133
C         50.33001        53.25292         0.62826
C         49.02936        52.52579         0.62037
C         50.24342        54.62988         0.68629
C         48.99303        55.33510         0.70087
C         52.74755        20.08761        -1.97657
C         51.45212        20.72857        -1.94185
C         52.68140        22.92153        -2.13619
C         51.41673        22.16521        -2.33978
C         52.57770        24.36194        -1.84178
C         51.29557        25.11664        -1.95139
C         52.67557        27.32537        -1.73717
C         51.37933        26.61884        -2.08820
C         52.66479        28.84608        -1.76534
C         51.32739        29.55906        -1.81225
C         52.41630        31.84853        -2.06767
C         51.30118        31.03196        -1.74572
C         52.55432        33.18844        -1.64696
C         51.33910        33.84630        -1.32589
C         52.66826        36.01719        -1.18516
C         51.33487        35.31270        -1.23542
C         52.63552        37.43862        -0.75712
C         51.44966        38.15533        -0.73390
C         52.71171        40.31459        -0.18966
C         51.48323        39.64042        -0.63605
C         52.71206        41.63421         0.23048
C         51.44341        42.31051         0.54308
C         52.75702        44.51305         0.59153
C         51.50716        43.81434         0.89148
C         52.75012        45.92497         0.37040
C         51.55306        46.67632         0.35518
C         52.76834        48.80450         0.29960
C         51.57663        48.10984         0.29757
C         52.85626        50.25349         0.59775
C         51.57091        51.02914         0.88379
C         52.78960        53.09556         0.33264
C         51.57748        52.49637         0.61562
C         53.90065        20.80260        -2.06288
C         55.12392        22.98581        -1.73275
C         53.88718        22.25049        -1.99967
C         55.02670        24.38660        -1.69160
C         53.82722        25.11625        -1.64375
C         54.75029        26.94290        -0.26497
C         53.79327        26.46001        -1.20606
C         54.70134        29.13116        -0.21701
C         53.84723        29.61610        -1.21663
C         55.29320        31.64188        -1.26782
C         54.26050        30.81608        -1.78729
C         55.14477        33.09014        -1.37340
C         53.86761        33.83415        -1.44531
C         55.08945        35.80767        -0.46898
C         53.89945        35.19544        -1.13048
C         55.05083        37.24235        -0.00753
C         53.93226        38.10172        -0.50947
C         55.09847        40.07294         0.66518
C         53.97821        39.56619        -0.22128
C         55.15968        41.58615         0.70917
C         53.92689        42.34576         0.51395
C         55.22504        44.44987         0.26280
C         53.96674        43.76652         0.51242
C         55.21053        45.89526         0.10791
C         54.00535        46.59562         0.14707
C         55.31587        48.78906        -0.05357
C         53.99652        48.05877        -0.02981
C         55.41305        50.25954         0.34036
C         54.08692        51.00392         0.24454
C         54.01993        52.37107         0.20397
C         57.32057        22.95362        -0.54170
C         56.36067        22.37893        -1.37208
C         57.26392        24.23358         0.09429
C         56.55451        25.30934        -0.44895
C         56.93083        27.36669         0.96520
C         56.00973        26.49769         0.14843
C         56.88269        28.88179         0.90992
C         55.99096        29.63008         0.00814
C         57.48815        31.55812         0.02883
C         56.28727        30.95683        -0.46220
C         57.97277        32.77968        -0.42379
C         56.31561        33.85946        -1.21210
C         57.62759        35.73608        -0.20968
C         56.40982        35.14846        -0.62491
C         57.62227        37.15459         0.25646
C         56.34404        37.92613         0.35565
C         57.62292        40.08659         0.18198
C         56.40780        39.39986         0.32710
C         57.65658        41.50255         0.10695
C         56.48451        42.29863         0.46648
C         57.67577        44.37069        -0.14295
C         56.41604        43.72476         0.11931
C         57.66475        45.82997        -0.39465
C         56.46800        46.61560        -0.01270
C         57.87160        48.73453         0.08579
C         56.54822        47.98394         0.02003
C         57.70854        50.09918        -0.57272
C         56.58884        50.82459        -0.42996
C         57.86518        24.85999         3.57152
C         57.81819        25.25612         2.26972
C         58.75020        27.53977         2.92439
C         57.92223        26.71137         1.91283
C         58.43788        29.06369         2.87706
C         57.87358        29.56829         1.56877
C         59.53821        31.56668         1.59490
C         58.33809        30.85528         1.00996
C         59.74097        33.00947         1.26396
C         58.89042        33.60535         0.29393
C         59.97514        35.76956         0.62512
C         58.84984        35.03295         0.12747
C         60.08063        37.20449         0.37319
C         58.88405        37.93168         0.17910
C         60.12686        40.05509         0.14055
C         58.88155        39.33720         0.10882
C         60.14460        41.48216         0.04087
C         58.89128        42.20681        -0.38395
C         60.14585        44.48884         0.08535
C         58.86727        43.68722        -0.07789
C         60.17585        45.61217        -1.01120
C         58.92591        46.50892        -0.81075
C         60.31158        48.48873        -0.38348
C         59.07053        47.94677        -0.44072
C         58.12898        25.81608         4.62891
C         58.57298        27.05531         4.34745
C         59.61868        29.85741         3.39126
C         60.07587        31.00214         2.86264
C         60.75880        33.79005         1.82949
C         60.93115        35.11608         1.42311
C         61.30249        37.91645         0.42252
C         61.32323        39.29349         0.29252
C         61.33547        42.25520         0.17584
C         61.36787        43.62310         0.12990
C         61.45652        46.40412        -0.99885
C         61.49757        47.72349        -0.72766
O         50.72818        22.33252        -3.63446
O         41.06751        44.32425         2.33093
O         59.72929        30.66969         0.45077
O         29.64333        39.77390        -2.02411
O         54.59047        48.55602        -1.30455
O         56.96035        37.34780         1.56640
O         45.52837        54.06816        -1.53366
O         50.05486        45.53146         1.95504
O         37.10536        22.24381         2.07184
O         24.55213        25.06606         2.26658
O         38.47051        35.46225         1.72266
O         45.33704        26.67133        -2.65475
O         53.47427        31.32793        -2.81960
O         55.96264        42.03324         1.84445
O         33.87605        37.96685        -1.93504
O         34.99755        22.62412        -1.06418
O         48.45778        21.10429        -2.91315
O         24.01556        42.11223         2.02076
O         26.91801        41.99701        -1.89471
O         51.88039        35.90216        -2.44237
O         47.72068        24.75622        -3.10910
O         41.85662        52.88100        -1.52204
O         47.13624        31.36895        -3.01969
O         24.42189        43.98815        -1.22717
O         26.31238        32.78623        -0.92552
O         32.20417        51.59615        -2.21203
O         42.90781        27.32458         1.62347
O         31.29664        22.31471         2.17179
O         27.34225        46.39429         1.29747
O         46.60012        47.23108        -1.80006
O         36.56959        27.13533         2.40488
O         44.01012        29.09220        -2.52080
O         32.75684        27.69282        -1.25912
O         52.42064        50.59714         1.98229
O         48.79485        30.14338        -0.10608
O         30.57482        29.17998        -0.87055
O         49.48249        47.26235        -1.32213
O         36.62181        51.72688        -1.43360
O         54.38859        39.06233        -1.53637
O         45.11410        44.98829        -1.38444
O         35.07895        25.00588        -0.91336
O         45.19317        37.03422        -2.11908
O         35.11418        32.32733         1.37332
O         51.51395        42.81469         1.93559
O         45.66187        33.96790        -2.69291
O         28.55923        50.11874        -2.74389
O         50.83467        40.31581        -1.77056
O         58.33223        26.97921         0.55644
O         33.74013        35.48207        -2.06396
O         41.19684        21.25677        -1.05243
O         51.61535        24.60444        -0.63916
O         30.33147        31.46275         2.28255
O         25.24280        30.07696        -1.58464
O         32.43679        45.12535         1.80294
O         27.19543        29.24578         2.29378
O         34.32794        30.15700        -1.58123
O         41.67040        21.68750         2.49827
O         24.74287        35.43834         1.86771
O         41.36741        29.37173         1.63349
O         48.71590        51.82503         1.87616
O         37.58828        40.86667         2.22901
O         32.04674        43.74788        -1.57746
O         43.31955        25.54116        -1.46951
O         45.87259        22.73267         1.36969
O         39.33833        17.52863        -2.01894
O         53.09992        28.08923        -2.93264
O         54.26987        28.02594         0.51021
O         31.29984        24.87449         2.31726
O         57.93424        46.19101        -1.84179
O         57.51134        33.27144        -1.65308
O         33.01904        52.74302         0.96667
O         46.31736        35.00739         0.71640
O         33.67219        33.08780        -1.68637
O         46.04634        50.79212        -1.49963
O         50.80101        27.09083        -3.31931
O         38.60128        46.42160         2.37920
O         57.85002        24.22237         1.34429
O         50.06055        49.22387         1.83433
O         46.84922        44.35336         1.76841
O         28.93300        33.69761         2.13525
O         38.47677        33.47802        -1.24112
O         41.34915        17.17963         1.24888
O         56.21353        25.13048        -1.81195
O         43.72314        20.79197        -1.06688
O         54.70031        36.19706         0.92352
O         33.82349        47.75558         1.92042
O         41.10405        39.67546         2.13234
O         30.08757        44.29850         1.55829
O         36.96403        24.66878         2.35953
O         30.87383        37.60370        -2.11473
O         36.91857        29.30808        -1.65415
H         36.08588        29.66002        -2.05701
O         57.35352        29.27306         3.83690
H         57.16826        30.23401         3.88951
O         44.48833        31.64755        -3.25284
H         45.19955        32.03315        -3.81314
O         39.19055        52.58840        -1.63906
H         38.36103        52.22635        -2.03541
O         48.13473        49.29691        -2.08860
H         48.05188        48.44514        -2.57695
O         30.40703        42.25804        -2.71758
H         29.73123        41.67523        -3.12869
O         41.98777        25.20095         2.79529
H         42.61961        25.91356         3.03195
O         43.27482        18.72370         1.86255
H         42.70447        17.99616         2.21351
O         55.74995        50.31171         1.76554
H         54.91636        50.29057         2.28522
O         40.31682        52.78944         1.83829
H         39.86824        53.52028         2.33361
O         46.70623        17.77367        -1.91971
H         45.75973        17.65172        -2.17564
O         58.89237        42.16911        -1.86827
H         59.44277        42.93050        -2.17713
O         36.22239        55.99184         1.68421
H         36.85517        56.74620         1.79258
O         47.79025        37.09995         1.23006
H         47.17394        36.30324         1.35797
O         54.75205        39.62806         2.00350
H         55.30791        40.14188         2.63153
O         39.36023        25.45679         2.89336
H         38.44340        25.63867         3.21667
O         38.42192        57.50641         1.62747
H         38.50078        58.47325         1.48665
O         48.14807        53.27385        -1.44320
H         47.36621        53.66957        -1.90177
O         36.20559        47.10510         2.70643
H         37.08604        47.13553         3.15080
O         60.13032        27.35524         2.55711
H         60.18464        27.45742         1.58075
O         48.14335        18.78487         1.27885
H         48.96169        19.26289         1.52632
O         43.95153        18.14713        -1.70712
H         43.91059        19.10699        -1.94998
O         50.23973        24.73090        -4.02182
H         49.40903        24.45890        -4.46849
O         60.07150        45.19933         1.35013
H         60.08251        44.54222         2.07689
O         43.46258        23.11217         2.69407
H         43.78721        22.23039         2.96313
O         60.07180        44.92549        -2.27476
H         59.21643        45.21997        -2.67941
O         50.28268        35.74608         0.84199
H         49.47091        36.12512         1.27018
O         39.14471        55.21183         2.27349
H         38.30785        55.56517         2.64949
O         46.20026        52.35910         1.57363
H         47.00886        52.05560         2.06456
O         58.16315        48.96918         1.49198
H         57.42183        49.51113         1.86001
H         22.24903        24.14484         1.65085
H         20.61559        25.18234         0.02377
H         21.18378        27.33910        -1.02788
H         21.46385        29.08051        -1.68116
H         21.54748        31.47772        -1.87854
H         21.47259        33.51671        -1.68578
H         21.28550        35.88828        -1.07428
H         20.89587        37.47637         0.56843
H         20.85467        39.90756         0.97890
H         20.81799        41.86620         1.38149
H         20.80133        44.27498         1.21403
H         20.75894        46.21709         0.91299
H         22.91097        49.85771         0.10658
H         20.83655        48.66624         0.76247
H         24.72743        22.50435         1.99763
H         24.24504        50.41110        -1.39799
H         26.74114        21.22650         1.26120
H         26.23868        51.24691        -2.65570
H         30.39354        19.14922        -0.08400
H         28.32089        20.36680         0.25174
H         30.19531        54.05380        -1.17969
H         28.51369        52.65752        -2.40922
H         32.13616        18.07670        -0.17048
H         32.03098        55.18914        -0.99335
H         34.25267        16.93718        -0.50907
H         34.04477        56.36810        -0.20598
H         38.03082        14.84240        -0.60705
H         35.94000        16.04311        -0.45800
H         38.15729        57.79991        -1.44782
H         36.00324        56.61050        -1.44098
H         39.81703        13.95943        -1.21963
H         39.32193        59.43851        -0.06413
H         43.93717        13.87852         0.04720
H         41.88764        12.71891        -0.65671
H         43.62639        59.47093        -0.11419
H         41.46516        60.67733        -0.28699
H         45.51689        14.96225         0.76211
H         45.14351        58.49430         0.78578
H         47.63416        16.11604         0.44443
H         47.24121        57.27277         1.05614
H         51.19202        18.02752        -1.55573
H         49.34596        16.93356        -0.46083
H         51.15925        55.23312         0.76813
H         49.03256        56.41352         0.91285
H         52.80417        18.99172        -1.93023
H         52.82672        54.18127         0.16529
H         54.86335        20.27586        -2.09423
H         54.93447        52.95554         0.02726
H         58.08022        22.26737        -0.13632
H         56.49597        21.30876        -1.58863
H         58.56355        50.51538        -1.12803
H         56.50934        51.82368        -0.88483
H         57.79441        23.79280         3.81746
H         60.44365        49.52881        -0.05312
H         58.03584        25.47926         5.67085
H         58.85120        27.74293         5.15791
H         60.07577        29.47920         4.31829
H         60.90660        31.52917         3.35625
H         61.46428        33.35054         2.54732
H         61.78252        35.68710         1.81874
H         62.24831        37.37244         0.55309
H         62.29502        39.80486         0.31098
H         62.29130        41.73064         0.32554
H         62.33318        44.13391         0.26271
H         62.37751        45.86710        -1.26975
H         62.46051        48.25475        -0.74456
