         633
 CSIRO Nanostructure Databank - Neutral Graphene Oxide Data Set
C         23.52725        69.76984        -2.37959
C         23.61076        71.02108        -3.00477
C         22.44778        71.83270        -3.19891
C         23.80082        73.57661        -4.20476
C         22.55413        73.08455        -3.77867
C         25.73473        65.37240        -1.09454
C         25.88372        66.80298        -1.54384
C         24.58070        67.51450        -1.85816
C         26.01396        69.45106        -2.57052
C         24.73626        69.03855        -1.88026
C         26.05201        70.64813        -3.39537
C         24.86853        71.52244        -3.48949
C         26.27325        73.30040        -4.65100
C         24.96132        72.79468        -4.07432
C         28.09458        61.21931         0.20707
C         28.15530        62.52927        -0.28756
C         26.97339        63.30087        -0.50508
C         28.29243        65.28900        -1.05348
C         27.02858        64.62906        -0.88157
C         28.34533        66.68275        -1.41249
C         27.10111        67.40986        -1.68112
C         28.45974        69.38635        -2.42766
C         27.18256        68.75714        -2.27116
C         28.58084        70.67309        -2.95818
C         27.44754        71.29375        -3.64625
C         28.63206        73.43960        -3.72838
C         27.48940        72.73211        -3.95101
C         30.33135        57.06272         1.62484
C         30.38300        58.36808         1.18390
C         29.21752        59.16542         0.96129
C         30.56482        60.97104        -0.15235
C         29.26032        60.43390         0.39461
C         30.61623        62.47022        -0.22797
C         29.43928        63.17992        -0.47065
C         30.77136        65.20291        -0.99094
C         29.48990        64.57009        -0.83128
C         30.80866        66.61629        -1.32079
C         29.57726        67.32607        -1.50231
C         30.92917        69.41874        -1.98403
C         29.59902        68.82916        -1.61089
C         30.99037        70.76517        -2.42633
C         29.79758        71.42712        -2.84932
C         31.05784        73.49569        -3.18211
C         29.84548        72.79926        -3.24782
C         32.72183        52.73646         1.88385
C         32.72558        54.14478         1.96410
C         31.51425        54.89471         1.88671
C         32.80649        56.96845         1.83248
C         31.54019        56.28127         1.77222
C         32.87225        58.36822         1.57175
C         31.73091        58.90123         0.74664
C         32.94744        61.07421         0.62430
C         31.76232        60.38168         0.53604
C         33.05184        62.42549         0.15402
C         31.89209        63.11754        -0.26254
C         33.27017        65.09101        -0.89586
C         31.94505        64.47949        -0.71322
C         33.29684        66.57175        -1.26523
C         32.03507        67.30311        -1.39855
C         33.37598        69.36324        -1.84962
C         32.10700        68.70594        -1.71545
C         33.44115        70.74741        -2.19005
C         32.24523        71.44526        -2.48735
C         33.49405        73.54276        -2.72921
C         32.27314        72.84873        -2.81310
C         35.17908        48.48687         1.30634
C         35.15121        49.88292         1.58862
C         33.94350        50.59276         1.68581
C         35.17455        52.70191         2.02025
C         33.92597        52.00040         1.87294
C         35.18969        54.11504         2.14507
C         33.97468        54.84285         2.09124
C         35.23630        56.99430         2.25666
C         34.00190        56.27152         2.09593
C         35.24972        58.43970         2.23048
C         34.02383        59.09695         1.82898
C         35.28894        61.32309         1.73988
C         34.04002        60.53821         1.49085
C         35.58489        62.42842         0.74580
C         34.43399        62.95742        -0.15657
C         35.60513        65.25229         0.04783
C         34.44425        64.45450        -0.29491
C         35.65250        66.73817        -0.36211
C         34.52812        67.34972        -1.07863
C         35.90922        69.28736        -1.76784
C         34.56633        68.67204        -1.47764
C         35.90041        70.79543        -1.84340
C         34.69910        71.45740        -2.14772
C         35.90026        73.59723        -2.18209
C         34.69749        72.88572        -2.35905
C         37.60181        44.44506        -0.06234
C         37.58854        45.72742         0.50444
C         36.39235        46.42617         0.72968
C         37.64570        48.49491         1.29088
C         36.38145        47.78734         1.14448
C         37.63053        49.89439         1.58840
C         36.40271        50.58849         1.73973
C         37.63783        52.68489         2.21534
C         36.40202        51.98648         1.99128
C         37.62913        54.10030         2.43260
C         36.43301        54.81488         2.32347
C         37.65514        56.96611         2.59651
C         36.43420        56.26062         2.40485
C         37.61678        58.38110         2.78395
C         36.44910        59.15423         2.50444
C         37.74602        61.47907         2.46134
C         36.42111        60.70698         2.63147
C         37.87430        62.74956         1.87561
C         36.83235        63.24071         0.94168
C         37.94537        65.46963         0.83068
C         36.87480        64.65717         0.51074
C         37.99199        66.85135         0.38959
C         36.96237        67.40024        -0.34294
C         38.38968        69.35695        -1.20876
C         36.99249        68.85607        -0.75421
C         38.31398        70.88000        -1.17018
C         37.10549        71.51566        -1.61029
C         38.25987        73.69551        -1.49730
C         37.08481        72.95164        -1.76435
C         40.06904        40.57172        -1.92162
C         40.06144        41.91082        -1.48155
C         38.84260        42.54377        -1.04244
C         40.05250        44.57740        -0.35997
C         38.81697        43.81670        -0.47194
C         40.09140        45.80765         0.24275
C         38.89135        46.32813         0.99530
C         40.08990        48.56286         1.12226
C         38.86499        47.83467         1.10185
C         40.09987        49.93487         1.44870
C         38.86366        50.60264         1.73359
C         40.13494        52.66074         2.28749
C         38.85100        51.96238         2.12580
C         40.16262        54.09904         2.65997
C         38.85138        54.80322         2.99430
C         40.10975        56.99459         2.82133
C         38.90489        56.28820         2.71352
C         40.09580        58.39609         3.09885
C         38.82791        58.92653         3.30924
C         40.15946        61.57795         3.03248
C         38.86779        61.07087         3.19893
C         40.21326        62.92463         2.61405
C         39.05328        63.52023         2.07351
C         40.21362        65.78809         2.04022
C         38.88916        65.02407         1.93882
C         40.36908        67.04545         1.29644
C         39.14115        67.76524         0.77654
C         40.62506        69.63071         0.04034
C         39.55247        68.66612        -0.41563
C         40.61129        71.01094        -0.26878
C         39.43656        71.64013        -0.84021
C         40.59010        73.83694        -0.72944
C         39.42140        73.07447        -1.01762
C         42.50114        36.59740        -3.57061
C         42.48686        37.93567        -3.11349
C         41.28365        38.58709        -2.75673
C         42.51364        40.64843        -2.21427
C         41.27445        39.92852        -2.30379
C         42.51154        42.02161        -1.80595
C         41.28102        42.64149        -1.45930
C         42.55529        44.50427        -0.43046
C         41.25421        44.11945        -1.15218
C         42.56018        45.94148         0.01399
C         41.32970        46.56936         0.32043
C         42.56808        48.61161         0.86913
C         41.33613        47.90422         0.78510
C         42.58302        50.00275         1.19757
C         41.34301        50.67655         1.44883
C         42.55914        52.80370         1.70241
C         41.34984        52.04604         1.73094
C         42.57880        54.20830         1.92893
C         41.27916        54.95227         2.09035
C         42.62027        57.05117         2.49166
C         41.41455        56.23497         2.91878
C         42.64469        58.49011         2.88614
C         41.36587        59.19942         3.31472
C         42.63358        61.39435         2.70654
C         41.40295        60.81631         3.50906
C         42.72587        62.92085         2.74493
C         41.45003        63.67952         3.07980
C         42.77132        65.88447         2.71913
C         41.42869        65.15076         2.66973
C         42.77706        67.11439         1.83993
C         41.63137        67.67967         1.25237
C         42.88602        69.82621         0.90243
C         41.72472        69.04262         0.68717
C         42.87263        71.20703         0.62409
C         41.73575        71.81579         0.07292
C         42.93977        73.99604        -0.02201
C         41.74503        73.24427        -0.21453
C         44.94193        33.98271        -4.67904
C         43.73521        34.60088        -4.36653
C         44.95240        36.64924        -3.77208
C         43.71125        35.94563        -3.90489
C         44.95649        38.00058        -3.31845
C         43.73364        38.64974        -2.99575
C         44.98558        40.69262        -2.41806
C         43.74052        39.99853        -2.54455
C         44.98617        42.05641        -1.91494
C         43.76110        42.71458        -1.68734
C         45.05242        44.60579        -0.63047
C         43.78135        44.17066        -1.29664
C         45.03336        45.75547         0.33581
C         43.77611        46.57438         0.27276
C         45.05331        48.62717         0.80977
C         43.80372        47.93745         0.65093
C         45.06169        50.00282         1.14178
C         43.80783        50.70086         1.30171
C         44.99332        52.86263         1.50498
C         43.78945        52.11657         1.50956
C         44.99226        54.25832         1.57904
C         43.76714        54.94813         1.82240
C         44.97226        57.17730         1.74777
C         43.74264        56.40137         2.05733
C         45.03743        58.58683         2.22481
C         43.91012        59.23675         2.62157
C         45.18429        61.42659         2.48555
C         43.97305        60.69421         3.06228
C         45.18396        62.83633         2.38760
C         43.93061        63.58196         2.53173
C         45.23569        65.68263         2.36993
C         44.00896        65.02993         2.49056
C         45.24296        67.20339         2.40078
C         44.11500        67.69215         1.48997
C         45.30982        69.85176         1.29114
C         44.11439        69.18856         1.33070
C         45.35131        71.24361         0.70812
C         44.07904        72.01458         1.03528
C         45.34362        74.09347         0.52083
C         44.12204        73.41275         0.45752
C         46.15671        34.66370        -4.54441
C         47.41421        36.71193        -3.92247
C         46.18446        36.00247        -4.09042
C         47.44091        38.03111        -3.48242
C         46.19307        38.70716        -3.19888
C         47.47173        40.84636        -2.77674
C         46.18959        40.04747        -2.76521
C         47.45107        41.87495        -1.67246
C         46.21594        42.67085        -1.54450
C         47.49028        44.51283        -0.38483
C         46.24239        43.92762        -0.85419
C         47.52239        45.85854         0.04670
C         46.30336        46.56274         0.28841
C         47.53838        48.66695         0.68740
C         46.29703        47.93626         0.58814
C         47.53370        50.04102         1.12060
C         46.29811        50.68385         1.35073
C         47.50634        52.84415         2.07882
C         46.24600        52.10762         1.74598
C         47.54608        54.30207         1.73972
C         46.28236        54.94547         1.16701
C         47.52967        57.24455         1.14924
C         46.21293        56.47681         1.28013
C         47.59325        58.57085         1.89069
C         46.38540        59.21118         2.55251
C         47.63594        61.38531         2.29376
C         46.39502        60.71727         2.36853
C         47.65762        62.79415         2.22849
C         46.42919        63.52608         2.23299
C         47.72883        65.64657         2.18468
C         46.46590        64.96194         2.22931
C         47.77768        67.14380         2.47134
C         46.54629        67.84623         1.99558
C         47.79543        69.92130         1.54443
C         46.55591        69.16348         1.59550
C         47.78613        71.34258         1.34664
C         46.58270        72.02891         1.06448
C         47.77600        74.15935         1.06933
C         46.55912        73.43199         0.89872
C         48.68766        38.71115        -3.21814
C         49.96220        40.67600        -2.43177
C         48.73496        40.01234        -2.76320
C         50.00213        41.89349        -1.75447
C         48.74263        42.41198        -1.15391
C         50.04439        44.53499        -0.43555
C         48.73325        43.74855        -0.47493
C         49.96344        45.98246        -0.27657
C         48.77334        46.59968         0.08319
C         49.99875        48.71433         0.59688
C         48.75692        48.01423         0.41363
C         49.99194        50.04638         1.16032
C         48.79259        50.70868         1.38005
C         50.05452        52.81290         2.15849
C         48.78380        51.97507         2.23195
C         50.03236        54.30868         1.94513
C         48.73327        54.99126         1.64117
C         49.96713        57.10463         1.31354
C         48.76503        56.41664         1.41871
C         50.00878        58.53110         1.47563
C         48.80473        59.21075         1.93151
C         50.26251        61.34423         2.42658
C         48.88234        60.56293         2.63070
C         50.12631        62.79734         2.01296
C         48.92935        63.50065         2.11668
C         50.24030        65.67310         2.37378
C         48.92702        64.94600         2.10300
C         50.22150        67.13450         1.98766
C         49.03556        67.82911         2.00264
C         50.24488        69.97099         1.66880
C         49.01397        69.24741         1.74565
C         50.24306        71.38934         1.58155
C         49.00586        72.08551         1.45315
C         50.21860        74.31999         1.58563
C         48.96712        73.51079         1.33908
C         51.20291        42.64292        -1.61004
C         52.44530        44.67814        -0.99869
C         51.25165        43.92301        -1.05309
C         52.45830        46.02124        -0.59445
C         51.17284        46.81867        -0.57056
C         52.46951        48.70618         0.49019
C         51.21600        48.07356         0.27356
C         52.53282        50.00275         1.07565
C         51.29595        50.53940         1.77990
C         52.60691        52.84573         1.74957
C         51.35421        52.05458         2.03176
C         52.46843        54.28089         1.38321
C         51.28698        54.94900         1.46763
C         52.44480        57.11384         0.86016
C         51.16587        56.32554         0.84941
C         52.40475        58.50912         0.90272
C         51.22596        59.23218         1.30808
C         52.54931        61.32525         1.37153
C         51.34015        60.63680         1.60684
C         52.67727        62.78173         1.78609
C         51.35094        63.49953         1.46631
C         52.61726        65.64597         1.54094
C         51.44586        64.96893         1.80249
C         52.66741        67.10088         1.60009
C         51.46236        67.82662         1.75809
C         52.71101        69.94878         1.56168
C         51.47374        69.24733         1.66704
C         52.71084        71.39283         1.48193
C         51.49169        72.10476         1.51481
C         52.68528        74.21403         1.22351
C         51.49984        73.53689         1.41363
C         53.65996        46.71127        -0.39524
C         54.92407        48.69776         0.27571
C         53.68154        48.03779         0.08621
C         54.96632        49.99837         0.72620
C         53.76009        50.68949         1.08774
C         54.99735        52.82134         1.08510
C         53.83171        52.12043         1.31322
C         54.97242        54.32761         1.19913
C         53.65213        54.89874         0.65395
C         54.88198        57.10227         0.51735
C         53.66359        56.40980         0.69799
C         54.88048        58.51242         0.40809
C         53.57951        59.26344         0.35993
C         54.91451        61.35850         0.61992
C         53.68214        60.68340         0.82528
C         54.97011        62.80526         0.73138
C         53.83402        63.51284         1.12774
C         54.99306        65.65028         0.76941
C         53.82932        64.93480         1.13207
C         55.05971        67.08807         0.93550
C         53.87982        67.80413         1.38861
C         55.23262        69.92711         1.56856
C         53.90875        69.21724         1.46841
C         55.17695        71.39847         1.22027
C         53.94091        72.09725         1.28524
C         55.14175        74.20611         0.90713
C         53.93229        73.51944         1.13167
C         56.30264        50.65224         0.96346
C         57.38525        52.84159         0.49513
C         56.24771        52.14971         0.80984
C         57.38530        54.27966         0.34180
C         56.17956        54.99746         0.58327
C         57.31892        57.08301         0.00520
C         56.13849        56.38170         0.38347
C         57.29993        58.50226        -0.12582
C         56.07038        59.22565         0.16146
C         57.41137        61.33372         0.16058
C         56.07356        60.64165         0.23702
C         57.31964        62.81524        -0.09427
C         56.14978        63.50973         0.30457
C         57.30867        65.61441        -0.15789
C         56.14970        64.93220         0.30831
C         57.29840        67.09279        -0.12194
C         56.20642        67.79574         0.57796
C         57.54340        69.88262         0.68091
C         56.35199        69.20797         0.84443
C         57.64054        71.34256         0.93209
C         56.36556        72.09200         0.99644
C         57.56939        74.20826         0.46579
C         56.36634        73.51613         0.81288
C         58.53539        54.95543        -0.07868
C         59.69250        57.07781        -0.63432
C         58.53389        56.36621        -0.23954
C         59.66241        58.47629        -0.80223
C         58.44521        59.18103        -0.55018
C         59.65110        61.36754        -0.96568
C         58.32794        60.65240        -0.85361
C         59.66803        62.76110        -0.94157
C         58.45060        63.49788        -0.57093
C         59.61743        65.66712        -1.20102
C         58.43389        64.91627        -0.61852
C         59.85599        66.96181        -0.41259
C         58.59687        67.79977        -0.30794
C         60.00497        69.90494        -0.14451
C         58.76389        69.16772         0.26239
C         60.01257        71.38029        -0.13661
C         58.89459        72.10021         0.50563
C         59.90534        74.21585        -0.31399
C         58.77822        73.55053         0.21416
C         60.83290        59.21178        -1.17042
C         62.05505        61.33637        -1.47708
C         60.84593        60.61647        -1.21463
C         62.07945        62.71624        -1.50462
C         60.88563        63.46549        -1.23998
C         62.11053        65.59731        -1.47450
C         60.91531        64.88354        -1.25930
C         62.11730        67.05656        -1.44124
C         61.00668        67.74413        -1.00210
C         62.18284        69.94407        -1.38008
C         60.87196        69.22864        -1.19125
C         62.21048        71.33660        -1.25829
C         61.05701        72.06060        -0.72540
C         62.23309        74.19135        -1.12515
C         61.07265        73.51916        -0.71959
C         63.37298        63.40823        -1.87719
C         64.47089        65.63321        -2.11530
C         63.33358        64.91844        -1.79737
C         64.48901        67.07067        -2.14492
C         63.31504        67.78238        -1.82205
C         64.52931        69.91715        -2.11556
C         63.33647        69.21220        -1.78191
C         64.54682        71.34983        -2.03926
C         63.39841        72.05289        -1.60614
C         64.59663        74.18322        -1.82211
C         63.41452        73.49471        -1.51913
C         65.66306        67.79359        -2.50172
C         66.93242        69.89420        -2.98413
C         65.68731        69.18038        -2.50863
C         66.93223        71.38623        -2.74203
C         65.75524        72.07043        -2.34206
C         66.98723        74.19506        -2.46077
C         65.77674        73.49401        -2.20581
C         68.10400        72.10564        -2.96839
C         68.13077        73.50672        -2.82271
O         48.75075        60.29955         4.02413
O         58.64850        71.74847         1.91754
O         33.50069        65.52901        -2.31192
O         45.26805        57.02189         0.28089
O         52.25097        52.43656         3.11396
O         35.21204        66.35431         0.99118
O         46.59831        52.45829         3.16198
O         26.78766        70.48465        -4.66446
O         57.67002        67.74205        -1.43135
O         49.55428        43.78880         0.73443
O         50.08532        53.74287         3.29283
O         59.92657        69.26260         1.17122
O         42.23946        58.60613         4.32226
O         38.71737        60.04530         4.11585
O         47.99119        41.39168        -0.39724
O         40.50697        65.92221         3.52959
O         36.73870        62.17921        -0.11985
O         40.50397        53.13892         3.68521
O         34.13135        61.55380         2.59877
O         64.45542        62.89659        -1.08099
H         64.27669        63.12079        -0.14475
O         42.35111        61.04496         1.31792
H         43.06470        61.41732         0.75741
O         34.67639        62.42168        -1.50366
H         35.65603        62.32950        -1.59596
O         38.66382        69.05022        -2.59650
H         37.85184        69.22442        -3.13555
O         51.01361        47.30398        -1.96203
H         51.81331        47.83074        -2.17576
O         51.21854        63.41005         0.00658
H         50.40685        63.89281        -0.25675
O         53.27972        59.36807        -1.10155
H         53.17664        58.45117        -1.43761
O         41.54142        61.04474         4.89488
H         42.41336        60.67976         5.17855
O         46.39493        54.67583        -0.27036
H         45.80530        55.32459        -0.71830
O         31.96376        58.32700        -0.59142
H         31.36064        58.81502        -1.20755
O         47.80448        67.24223         3.94246
H         46.86618        67.38711         4.23548
O         50.83877        61.44498         3.76006
H         50.14360        61.01239         4.36184
O         54.97858        54.67505         2.61242
H         55.76553        54.26500         3.02747
O         44.03631        72.15704         2.48181
H         43.21072        72.62946         2.71605
O         55.58904        69.86143         2.99240
H         56.44900        70.32166         3.10546
O         38.09747        65.42380         3.10657
H         38.71416        65.43977         3.87541
O         68.10728        69.29120        -2.42072
H         68.08303        69.42478        -1.45121
O         47.48912        41.60899        -4.02749
H         47.50145        40.96559        -4.76721
O         58.04314        61.16773         1.46512
H         57.48609        61.62033         2.13302
O         46.49668        58.99213         3.99649
H         47.37945        59.42404         4.25474
O         24.07963        67.06654        -3.11785
H         24.06320        66.08155        -3.07514
O         51.29322        49.90997         3.09432
H         50.52223        50.28878         3.58346
O         57.66743        60.77548        -2.14864
H         58.24578        60.36359        -2.82390
O         36.17875        68.81066        -3.12970
H         35.92138        67.86557        -3.18835
O         26.34196        72.90015        -6.03312
H         26.41210        71.91651        -6.03540
O         50.36691        65.64096         3.83225
H         49.60452        66.15250         4.19464
O         42.88373        66.32360         4.12561
H         41.99621        66.67739         4.37075
O         50.23077        75.50565         0.78229
H         50.26560        75.23708        -0.15836
O         44.18865        60.70232         4.49280
H         44.98849        60.13717         4.65433
O         39.04391        45.85332         2.38041
H         39.18068        44.88267         2.34456
O         47.67136        57.57747        -0.27717
H         46.76015        57.77382        -0.60083
O         60.11037        69.40192        -2.44169
H         60.56437        68.88764        -3.14289
O         30.61302        60.50637        -1.56797
H         31.35184        60.98852        -2.00038
O         43.72036        44.96340        -2.54732
H         44.49958        44.71090        -3.08752
O         38.65846        54.71790         4.43859
H         39.28144        54.02480         4.76594
O         53.52389        54.51225        -0.74110
H         52.69115        54.92173        -1.07296
O         50.92002        56.06782        -0.59895
H         50.01790        56.39647        -0.81519
O         40.21367        67.72126        -1.29305
H         40.07319        68.04410        -2.21522
O         41.11253        44.80596        -2.42469
H         42.00299        44.86378        -2.85010
O         42.63549        43.67988         0.75620
H         43.38563        44.02404         1.30340
O         41.40538        63.68297         4.53019
H         40.79822        64.40693         4.80080
O         24.87005        69.41813        -0.46309
H         24.93744        70.39492        -0.41536
O         60.22464        66.56877         0.93353
H         60.38643        67.40140         1.43973
O         36.07705        60.94606         4.01176
H         35.09855        61.07518         4.05149
O         29.35389        69.30335        -0.22658
H         29.47249        70.27722        -0.22691
O         45.09384        67.67437         3.76632
H         44.29778        67.23093         4.16786
O         38.66188        68.60476         1.87663
H         38.41540        68.00212         2.61279
O         41.63054        55.86337         4.29587
H         41.78296        56.70105         4.79451
O         44.46074        67.16042         0.15763
H         43.76501        67.46371        -0.46494
O         57.32008        50.08104         0.13803
H         57.11971        50.30432        -0.79377
O         36.62623        69.60199         0.43389
H         37.25922        69.35888         1.16021
O         52.98394        62.87056         3.18911
H         52.26794        62.40020         3.69222
O         40.83335        55.32302         0.75407
H         41.55242        55.83340         0.32483
O         59.31577        65.99143        -2.58100
H         58.53280        66.59816        -2.56637
O         48.80938        51.43222         3.58192
H         48.84031        52.19927         4.19693
O         44.97753        45.11194         1.68487
H         45.83704        44.65538         1.82169
O         24.92576        64.64966        -2.06151
H         25.52303        64.33086        -2.77006
O         45.38045        71.07617        -0.74350
H         46.17991        70.55598        -0.96905
H         23.86865        74.57348        -4.66284
H         26.29547        74.41887        -4.62655
H         28.67425        74.51026        -3.98167
H         31.08414        74.56116        -3.45571
H         33.51641        74.62439        -2.93012
H         35.90864        74.68765        -2.32957
H         38.24832        74.78653        -1.63900
H         40.57831        74.91929        -0.92804
H         42.95249        75.04939        -0.34413
H         45.38830        75.15739         0.23992
H         47.77050        75.25495         0.97123
H         50.18318        74.67237         2.65656
H         52.67292        75.31057         1.13722
H         55.12695        75.29923         0.78469
H         57.50953        75.29276         0.28768
H         59.87167        75.30986        -0.42973
H         62.25306        75.29133        -1.10055
H         64.61893        75.28070        -1.74628
H         67.00453        75.28951        -2.35718
H         22.54046        69.40322        -2.05870
H         21.47247        71.45631        -2.85925
H         21.65652        73.70521        -3.90906
H         25.14188        65.36384        -0.13614
H         23.83464        67.25661        -1.04827
H         27.12030        60.80627         0.51068
H         25.99335        62.81983        -0.36843
H         29.36229        56.58712         1.84217
H         28.23814        58.73942         1.23425
H         31.76402        52.20586         1.77532
H         30.55503        54.35782         1.84073
H         34.22508        47.95282         1.17796
H         32.98984        50.05562         1.57103
H         36.64589        43.94525        -0.28545
H         35.43300        45.93764         0.49628
H         39.12496        40.00834        -1.96102
H         37.90402        41.97445        -1.12521
H         41.55098        36.05019        -3.66343
H         40.33276        38.03848        -2.83003
H         44.94271        32.94234        -5.03385
H         42.78861        34.05196        -4.47327
H         47.10092        34.15708        -4.79056
H         48.36007        36.19050        -4.13326
H         49.61938        38.13001        -3.29975
H         50.91042        40.20322        -2.73291
H         52.12598        42.22715        -2.04303
H         53.39728        44.18986        -1.25966
H         54.61603        46.18721        -0.54534
H         55.86094        48.17495         0.03463
H         56.59889        50.42740         2.02873
H         58.31806        52.28835         0.31100
H         59.45719        54.38900        -0.27713
H         60.63035        56.52993        -0.80871
H         61.76760        58.66179        -1.35574
H         62.98069        60.77408        -1.66931
H         63.61716        63.12655        -2.93951
H         65.39283        65.08960        -2.36984
H         66.57220        67.23948        -2.77776
H         67.01018        69.73164        -4.09720
H         69.01534        71.56739        -3.26442
H         69.06649        74.05215        -3.00905
