         424
 CSIRO Nanostructure Databank - Neutral Graphene Oxide Data Set
C          1.31392         3.40206        -0.22276
C          0.44473         4.30339        -1.06563
C          1.15855         6.18541         0.38090
C          0.36973         5.61122        -0.79185
C          1.20623         7.69623         0.33734
C         -0.00356         8.40435         0.29433
C          1.17986        10.54022         0.17516
C         -0.02235         9.79110         0.20674
C          1.18974        11.96652        -0.01560
C         -0.02222        12.68372        -0.28795
C          1.24892        14.72429        -0.78476
C         -0.00949        13.98821        -0.67897
C          1.23410        16.28801        -0.86046
C         -0.02786        17.02995        -0.77004
C          1.18005        19.10986        -0.31035
C         -0.04296        18.35069        -0.45416
C          1.16435        20.54950        -0.20967
C         -0.03176        21.28712        -0.04468
C          1.18311        23.41440        -0.08462
C         -0.01496        22.66945         0.03019
C          1.18355        24.86289         0.02058
C         -0.00001        25.59414         0.23023
C          1.19574        27.72010         0.19943
C          0.00720        26.98693         0.30657
C          1.19652        29.18398         0.18586
C         -0.01156        29.92068         0.15070
C          1.20426        32.03470         0.19246
C         -0.00406        31.30570         0.18377
C          1.21923        33.48830         0.31946
C          0.02093        34.21184         0.58924
C          1.23939        36.31030         0.73033
C          0.03056        35.57532         0.80446
C          1.27740        37.72084         0.94826
C          3.76918         3.42356         0.31010
C          2.58951         4.10997         0.17771
C          3.70456         6.28486         0.48306
C          2.51860         5.52834         0.40121
C          3.68111         7.71889         0.42395
C          2.42508         8.41522         0.35503
C          3.65509        10.56967         0.35032
C          2.41971         9.84121         0.28926
C          3.65072        11.99196         0.28141
C          2.42404        12.68432         0.01754
C          3.65169        14.82895        -0.04604
C          2.46217        14.08039        -0.26790
C          3.62283        16.27527        -0.14363
C          2.45756        16.97509        -0.42081
C          3.63867        19.15776        -0.35120
C          2.40732        18.42291        -0.32011
C          3.60303        20.56390        -0.47337
C          2.39128        21.27700        -0.32089
C          3.63960        23.43766        -0.41875
C          2.40817        22.71746        -0.29075
C          3.64404        24.87731        -0.30540
C          2.41597        25.57667        -0.07542
C          3.66525        27.69523        -0.00427
C          2.42787        27.00148         0.04202
C          3.70392        29.14728         0.39625
C          2.41427        29.89286         0.16397
C          3.68473        32.02176        -0.01075
C          2.43026        31.31308         0.12277
C          3.69267        33.47744         0.01521
C          2.43782        34.18985         0.23604
C          3.64558        36.36007         0.28326
C          2.44950        35.61874         0.40897
C          3.68652        37.75800         0.54039
C          2.45710        38.41925         0.87066
C          6.26886         3.45784         0.40700
C          4.99704         4.13748         0.80668
C          6.13106         6.31813         0.21689
C          4.96418         5.60358         0.44355
C          6.13674         7.73753         0.33879
C          4.89829         8.44051         0.43617
C          6.11748        10.60246         0.58719
C          4.89369         9.87542         0.45073
C          6.09276        12.00734         0.65965
C          4.86826        12.72557         0.45966
C          6.05155        14.93493         0.67315
C          4.82689        14.15187         0.39735
C          6.11479        16.33779         0.25531
C          4.81151        17.07155         0.35184
C          6.10754        19.11363        -0.30183
C          4.87850        18.46357        -0.20859
C          6.15578        20.52258        -0.72445
C          4.83550        21.29175        -0.77365
C          6.11469        23.41634        -0.67657
C          4.87514        22.75174        -0.61611
C          6.10054        24.90242        -0.93060
C          4.85123        25.59299        -0.43158
C          6.12267        27.72972        -0.34225
C          4.86699        27.00115        -0.25177
C          6.09670        29.14934        -0.32679
C          4.91471        29.86976        -0.12296
C          6.14312        32.00419        -0.29767
C          4.88028        31.29638        -0.20995
C          6.15123        33.49405        -0.50737
C          4.87227        34.18880        -0.12377
C          6.12044        36.34879         0.27407
C          4.86837        35.69293        -0.27394
C          6.15801        37.84449         0.29373
C          4.90496        38.48950         0.48291
C          8.63318         3.50058        -0.21602
C          7.40936         4.14186        -0.00847
C          8.62806         6.33121         0.00590
C          7.34234         5.62046        -0.34243
C          8.58809         7.69922         0.39637
C          7.38163         8.43588         0.47434
C          8.58447        10.55760         0.86303
C          7.38091         9.86850         0.69153
C          8.62556        12.00759         0.79937
C          7.34090        12.70552         1.17609
C          8.58612        14.91237         0.51575
C          7.36512        14.21768         0.94960
C          8.57778        16.28395         0.28214
C          7.32242        17.01633         0.22704
C          8.56784        19.14357        -0.10679
C          7.34434        18.44145        -0.04085
C          8.58196        20.57728        -0.27700
C          7.38701        21.29084        -0.51061
C          8.60539        23.43476        -0.52824
C          7.36083        22.71277        -0.60950
C          8.59008        24.88699        -0.52729
C          7.37843        25.60880        -0.55793
C          8.61306        27.74625        -0.35290
C          7.36366        27.02471        -0.44842
C          8.62166        29.15426        -0.32311
C          7.35931        29.88611        -0.70165
C          8.57322        31.98269         0.25349
C          7.33004        31.32916        -0.28571
C          8.59959        33.47930         0.12777
C          7.41532        34.15274        -0.00040
C          8.67616        36.31374         0.30184
C          7.39732        35.59153         0.27193
C          8.62482        37.74956        -0.15319
C          7.37636        38.49136         0.25823
C         11.11207         3.53245        -0.57670
C          9.81138         4.26345        -0.74204
C         11.09784         6.31308         0.07106
C          9.83267         5.65522        -0.15238
C         11.12511         7.67195         0.45111
C          9.85267         8.33458         0.77909
C         11.15496        10.58063         1.13264
C          9.83938         9.81916         1.06082
C         11.09121        11.94211         0.41195
C          9.79326        12.68670         0.59751
C         11.08221        14.85317         0.11686
C          9.77237        14.10215         0.06376
C         11.05629        16.29918        -0.00828
C          9.81713        17.00820         0.06782
C         11.04698        19.15272         0.00894
C          9.81190        18.42604        -0.01150
C         11.02619        20.57433        -0.02928
C          9.81950        21.29075        -0.22156
C         11.08857        23.41669        -0.35974
C          9.82407        22.72452        -0.35388
C         11.08419        24.85790        -0.65448
C          9.82570        25.60548        -0.49138
C         11.10487        27.70962        -0.27860
C          9.85247        27.00549        -0.37774
C         11.11409        29.17114         0.09938
C          9.82513        29.89272        -0.18546
C         11.08366        32.02312        -0.01777
C          9.85108        31.28334        -0.09324
C         11.05955        33.45623         0.19808
C          9.85775        34.17376         0.34158
C         11.11840        36.37612         0.82300
C          9.85431        35.62583         0.43827
C         11.12076        37.83900         0.28287
C          9.92890        38.46239         0.02919
C         13.56929         3.36222        -0.31114
C         12.28979         4.16941        -0.33599
C         13.55059         6.30293        -0.01633
C         12.32246         5.59912        -0.09417
C         13.54723         7.70505         0.12128
C         12.34745         8.41133         0.42064
C         13.57184        10.57925         0.46134
C         12.36519         9.82820         0.61119
C         13.58350        12.01547         0.51954
C         12.31941        12.79518         0.81370
C         13.53599        14.84826         0.00281
C         12.28952        14.17486         0.19088
C         13.50762        16.25740        -0.52462
C         12.26312        17.01103        -0.14016
C         13.54282        19.11386        -0.06683
C         12.29242        18.42840        -0.04077
C         13.58420        20.54069         0.24514
C         12.26274        21.32507         0.21547
C         13.55695        23.47161        -0.04208
C         12.30384        22.76986        -0.09654
C         13.61344        24.86447        -0.15582
C         12.40475        25.61793        -0.54197
C         13.55408        27.80330        -0.03748
C         12.32895        27.06716        -0.28675
C         13.58923        29.18408        -0.13286
C         12.30796        29.88969        -0.51779
C         13.55111        32.06903        -0.22679
C         12.30870        31.36183        -0.17799
C         13.52672        33.49599        -0.11462
C         12.31666        34.16683         0.14615
C         13.59993        36.11276         0.76660
C         12.35029        35.55748         0.49388
C         13.57753        38.28455         0.56904
C         12.32618        38.62531         0.08170
C         16.05714         3.48223        -0.06724
C         14.83515         4.16966        -0.13361
C         16.04217         6.29003         0.13088
C         14.81509         5.57702        -0.05240
C         16.05997         7.72500         0.16672
C         14.80216         8.45893        -0.20360
C         16.02110        10.59768         0.22181
C         14.79684         9.89781         0.22167
C         16.01903        12.02568         0.23869
C         14.77094        12.72509         0.30773
C         16.00364        14.86679        -0.06143
C         14.75178        14.16562         0.10814
C         16.00490        16.29829        -0.22441
C         14.79231        17.00598        -0.29879
C         16.01343        19.15538        -0.36172
C         14.78036        18.42811        -0.27021
C         15.98111        20.60409        -0.29169
C         14.83182        21.28407         0.03873
C         16.08569        23.49380         0.02459
C         14.82272        22.75281         0.40888
C         16.07284        24.92244         0.09518
C         14.82482        25.58863         0.09462
C         16.10611        27.82767         0.22366
C         14.77693        27.04454         0.27473
C         16.06285        29.25573        -0.11328
C         14.82116        29.93725        -0.16787
C         16.04467        32.09485        -0.68764
C         14.77729        31.35546        -0.33085
C         16.06310        33.53907        -0.25891
C         14.77363        34.29611        -0.42414
C         16.01324        36.40079         0.25057
C         14.82154        35.62928         0.27427
C         16.01914        37.86845         0.26290
C         14.87065        38.70233         0.17152
C         18.55348         3.46651         0.20584
C         17.27072         4.16970         0.12951
C         18.53861         6.26955         0.60793
C         17.25363         5.57120         0.24400
C         18.52023         7.76423         0.39572
C         17.26991         8.44722         0.26911
C         18.49474        10.59869         0.26409
C         17.26895         9.88434         0.21755
C         18.48320        12.03322         0.21160
C         17.24449        12.73757         0.16391
C         18.47046        14.88368        -0.03337
C         17.22593        14.16838         0.02904
C         18.46382        16.29579        -0.23921
C         17.25637        17.00866        -0.30193
C         18.49828        19.14364        -0.51170
C         17.24831        18.45052        -0.44232
C         18.51834        20.60502        -0.70167
C         17.21165        21.37070        -0.58216
C         18.51522        23.50906        -0.38392
C         17.26170        22.81355        -0.27112
C         18.53631        24.93319        -0.26164
C         17.31379        25.65603        -0.04127
C         18.55241        27.79299        -0.20718
C         17.33682        27.06620        -0.03117
C         18.54930        29.22973        -0.20715
C         17.30537        29.95890        -0.23962
C         18.53006        32.09296        -0.24907
C         17.31118        31.36221        -0.34350
C         18.51909        33.52707        -0.17014
C         17.24385        34.23618        -0.11217
C         18.47605        36.38848        -0.00097
C         17.24734        35.69369         0.04197
C         18.47914        37.82777         0.03912
C         17.26834        38.52145         0.11922
C         19.72408         4.13181         0.13976
C         20.99506         6.34431         0.31928
C         19.73136         5.62643        -0.09820
C         20.97049         7.67539         0.53388
C         19.73146         8.45406         0.42842
C         20.94031        10.64689         0.37705
C         19.73886         9.89220         0.35496
C         20.92980        12.02703         0.32985
C         19.71331        12.76069         0.24908
C         20.89057        14.97476         0.40862
C         19.69470        14.18928         0.17320
C         20.92137        16.30507         0.17237
C         19.77975        16.96657        -0.55667
C         20.93021        19.20725        -0.39767
C         19.73421        18.47136        -0.43616
C         20.94837        20.60795        -0.37875
C         19.77312        21.35017        -0.52094
C         20.95402        23.52761        -0.61747
C         19.74338        22.78948        -0.52636
C         20.96542        24.90265        -0.56305
C         19.76741        25.64414        -0.37604
C         20.99027        27.82800        -0.39374
C         19.78002        27.08258        -0.32668
C         20.98880        29.20214        -0.34145
C         19.77365        29.94100        -0.25495
C         20.97193        32.13029        -0.14053
C         19.76965        31.38398        -0.20988
C         20.95506        33.50901        -0.11295
C         19.73522        34.23609        -0.12391
C         20.91379        36.43428        -0.14869
C         19.73305        35.69585        -0.09173
C         20.90510        37.84772        -0.12006
C         19.71798        38.53621        -0.02797
O         11.86225        25.22499        -1.84851
O         15.44935        27.49479         1.49535
O          9.77281         8.85878         2.17711
O          6.56647        35.81093         1.55077
O          5.49690        20.81331        -2.00076
O         13.60752        37.27180         1.55828
O         12.88477        20.93603         1.49880
O          6.62323        14.85290         2.05493
O          1.40361        15.45983        -2.04863
O         17.76414        21.05059        -1.90022
O          0.45021         5.81170         1.59825
H          0.43263         4.82188         1.62807
O         12.17985        29.79654        -1.96393
H         12.94454        30.25922        -2.36632
O         11.39839        10.76897         2.55554
H         10.99940         9.98505         3.00641
O         20.02218        16.71473        -1.99187
H         20.03304        15.74138        -2.11430
O          9.55175        13.88981        -1.40653
H          9.73601        14.74543        -1.85369
O          8.48290        37.60854        -1.63007
H          9.33247        37.25847        -1.97499
O          4.88295        35.97686        -1.72834
H          3.98539        35.78425        -2.07474
O         13.44944         2.38864         0.73741
H         14.33578         2.01517         0.91881
O         11.05932        36.51123         2.27251
H         11.90601        36.93592         2.54494
O          6.24597        33.62838        -1.98042
H          5.94372        34.54698        -2.20177
O          8.45834        31.74353         1.71658
H          7.77827        32.35944         2.06677
O          9.60690         4.42822        -2.21737
H         10.37017         4.94274        -2.55820
O         14.68113        34.58609        -1.87530
H         14.93547        33.74476        -2.33183
O         14.82456         8.50852        -1.69949
H         15.64887         8.97647        -1.95522
O          6.03514        25.03047        -2.40621
H          5.31497        24.44198        -2.71925
O         13.40482        16.11555        -2.00724
H         14.22143        15.66157        -2.30836
O         16.01681        32.15157        -2.19577
H         16.91365        32.43256        -2.48233
O          3.87589        29.13338         1.87166
H          3.08857        28.68450         2.24784
O          4.95072         4.10428         2.29036
H          4.06544         4.42539         2.56504
O         18.74086         6.04997         2.03874
H         17.98838         6.46058         2.51348
O         19.55768         5.83870        -1.52743
H         20.31976         5.43219        -1.98905
O          7.28198        12.48748         2.62166
H          6.79256        13.25669         2.99920
O         11.29702        29.23557         1.54485
H         10.43060        29.07919         1.97490
O          7.38701        29.92752        -2.17788
H          6.70845        30.57477        -2.46796
O         12.31691        13.13333         2.22433
H         12.19413        12.30155         2.74242
O          0.59680         3.05707         0.98705
H         -0.26606         2.67252         0.72841
O          4.60075        17.25261         1.80919
H          5.02138        16.49294         2.26929
O         11.20447        11.64606        -1.00492
H         10.75494        12.37605        -1.49696
O          7.18424         5.71657        -1.79321
H          7.96426         5.24804        -2.19153
O         14.81049        22.79034         1.87632
H         14.05436        22.21698         2.16033
H          1.55613         2.45591        -0.78123
H         -0.14460         3.86113        -1.88410
H         -0.28082         6.27644        -1.38086
H         -0.95221         7.85029         0.32464
H         -0.99421        10.29976         0.16179
H         -0.98460        12.15648        -0.24976
H         -0.94403        14.47928        -0.98139
H         -0.96978        16.51116        -0.99491
H         -1.00881        18.87181        -0.40494
H         -0.99432        20.76733         0.05126
H         -0.96965        23.18946         0.18354
H         -0.96436        25.07773         0.32087
H         -0.95146        27.50254         0.45116
H         -0.97812        29.40073         0.12335
H         -0.96805        31.83114         0.19172
H         -0.93521        33.67719         0.66219
H         -0.90586        36.10222         1.03829
H          0.34025        38.24287         1.19122
H          3.80632         2.33954         0.12324
H          2.47275        39.50252         1.05939
H          6.32560         2.36648         0.54863
H          4.87567        39.58107         0.61934
H          8.75067         2.43822         0.04690
H          7.41673        39.58932         0.32978
H         11.11118         2.44634        -0.75378
H          9.94331        39.53005        -0.24562
H         13.65470         2.81029        -1.30107
H         12.25043        39.47604        -0.61310
H         16.07156         2.38511        -0.16520
H         15.00319        39.70554        -0.26238
H         18.53604         2.36949         0.29951
H         17.28657        39.62161         0.10547
H         20.68082         3.58637         0.16541
H         21.94418         5.78762         0.36851
H         21.90527         8.19916         0.78157
H         21.90834        10.13077         0.43088
H         21.88884        12.56244         0.33962
H         21.76834        14.48383         0.85286
H         21.83403        16.87441         0.39737
H         21.89260        18.67992        -0.36060
H         21.91698        21.11407        -0.26962
H         21.90457        22.99782        -0.76356
H         21.92580        25.42326        -0.66901
H         21.95391        27.30852        -0.47501
H         21.95038        29.72965        -0.38876
H         21.94114        31.61632        -0.10155
H         21.91290        34.04218        -0.05787
H         21.88543        35.92868        -0.22366
H         21.85928        38.39045        -0.17161
H         19.70542        39.63524        -0.00297
