         276
 CSIRO Nanostructure Databank - Neutral Graphene Oxide Data Set
C        -10.90504         0.86364        -1.02960
C         -9.64670         1.68601        -0.92028
C         -8.48938         0.85332        -0.42481
C         -7.61498         1.41027         0.68755
C         -6.32947         0.60124         0.93794
C         -5.22106         1.28435         1.77254
C         -3.81582         0.58713         1.63457
C         -2.53344         1.34882         1.84671
C         -1.19265         0.65031         1.74504
C         -0.00531         1.29996         1.83236
C          1.36874         0.71553         2.14495
C          2.43459         1.34169         1.20595
C          3.65986         0.55344         0.79310
C          4.96116         1.34944         0.58630
C          6.11550         0.56283        -0.05150
C          7.36072         1.30866        -0.41988
C          8.66973         0.54892        -0.68612
C          9.92602         1.43184        -0.50415
C         11.11025         0.59755        -0.96553
C         -9.77458         2.99985        -0.20329
C         -8.71122         3.61696         0.36517
C         -7.45142         2.90841         0.63351
C         -6.34292         3.56368         1.08862
C         -5.13606         2.86324         1.64222
C         -3.82817         3.64901         1.86041
C         -2.54432         2.84149         1.88263
C         -1.30790         3.40062         1.82560
C         -0.06695         2.71994         1.39930
C          1.10023         3.44216         0.78853
C          2.48988         2.89371         1.22796
C          3.70092         3.53794         0.48361
C          4.70368         2.64126        -0.25015
C          6.02710         3.38319        -0.58672
C          7.39153         2.81430        -0.14552
C          8.52863         3.52792        -0.88112
C          9.78823         2.75572        -1.28792
C         -8.87011         5.00057         0.95507
C         -7.59249         5.80014         0.84659
C         -6.30742         5.04447         0.89134
C         -5.04750         5.81755         1.06011
C         -3.76713         5.24691         1.65833
C         -2.65322         5.82085         0.77446
C         -1.37482         5.42896         0.97979
C         -0.27044         5.60844         0.05261
C          1.04321         4.86039         0.22165
C          2.28723         5.61858        -0.10004
C          3.63466         4.96108         0.04106
C          4.62203         5.53601        -0.98979
C          5.96972         4.82706        -0.94597
C          7.22960         5.65978        -0.73406
C          8.44419         4.85251        -1.12896
C         -7.63614         7.14839         0.77559
C         -6.42117         7.99591         0.83146
C         -5.10830         7.33165         1.04517
C         -3.81776         8.03851         0.62138
C         -2.85484         7.06111        -0.03822
C         -1.67950         7.65821        -0.76927
C         -0.35723         6.92167        -0.77313
C          0.89861         7.66730        -0.87805
C          2.18727         7.14078        -0.25565
C          3.39206         7.67450        -1.02623
C          4.73337         7.05454        -0.66727
C          5.92379         7.70553        -1.34078
C          7.10098         7.02479        -1.37842
C         -6.43324         9.34897         0.22836
C         -5.30598         9.94969        -0.21336
C         -4.00078         9.29677        -0.21232
C         -2.94789         9.84614        -0.87339
C         -1.67873         9.10768        -1.25141
C         -0.36847         9.80456        -1.00249
C          0.85563         9.10459        -1.02045
C          2.08063         9.82301        -1.17846
C          3.32468         9.12230        -1.46340
C          4.62002         9.78759        -1.71837
C          5.78985         9.10147        -1.74809
C        -10.82045        -0.44456        -1.33609
C         -9.52833        -1.12758        -1.44219
C         -8.37004        -0.42651        -0.88407
C         -6.97897        -1.02348        -0.96458
C         -6.13341        -0.74131         0.27909
C         -4.82518        -1.54456         0.46039
C         -3.63063        -0.65613         0.78127
C         -2.29537        -1.32499         0.74241
C         -1.30695        -0.86065         1.83145
C          0.08585        -1.53835         1.80808
C          1.37217        -0.80827         2.07776
C          2.77184        -1.49582         2.08239
C          3.79774        -0.85484         1.17726
C          4.96166        -1.62408         0.71026
C          6.16925        -0.93687         0.11039
C          7.54433        -1.65747        -0.03171
C          8.79705        -0.77029         0.11730
C          9.98530        -1.55173        -0.44288
C         11.09527        -0.75361        -0.96407
C         -9.46697        -2.43295        -1.85182
C         -8.19892        -3.18446        -1.90810
C         -6.96222        -2.48363        -1.41807
C         -5.81059        -3.32206        -0.95802
C         -4.53644        -2.53529        -0.71539
C         -3.38120        -3.44781        -0.33717
C         -2.18051        -2.71344         0.16412
C         -0.89062        -3.45429         0.32065
C          0.33376        -2.78554         0.96332
C          1.34486        -3.69371         1.63382
C          2.68651        -3.02893         1.86486
C          3.92660        -3.77006         1.48491
C          5.20923        -2.92657         1.45661
C          6.48559        -3.72115         1.05202
C          7.73917        -2.96732         0.75013
C          9.07022        -3.70630         0.45300
C          9.98999        -2.91223        -0.45744
C         -8.17650        -4.65010        -2.02809
C         -6.99180        -5.39933        -1.91941
C         -5.77467        -4.75934        -1.32995
C         -4.39597        -5.34237        -1.63080
C         -3.32513        -4.75192        -0.72661
C         -2.12228        -5.59740        -0.49088
C         -0.91851        -4.95201         0.11745
C          0.03343        -5.78604         0.90763
C          1.32411        -5.14078         1.32589
C          2.47430        -5.78117         0.57676
C          3.82247        -5.03170         0.66736
C          5.07956        -5.72314         0.23033
C          6.44193        -5.01983         0.24108
C          7.68892        -5.85929         0.37005
C          8.89011        -5.20568         0.25274
C         -6.94644        -6.77352        -2.17565
C         -5.71589        -7.56901        -2.03304
C         -4.40904        -6.88218        -1.69247
C         -3.36197        -7.68879        -1.00087
C         -2.28547        -7.08024        -0.40113
C         -1.22527        -7.90911         0.22115
C          0.02286        -7.26676         0.76978
C          1.33495        -8.00230         0.73859
C          2.52008        -7.28735         0.72293
C          3.83872        -7.93635         0.61497
C          5.00112        -7.21389        -0.09133
C          6.32360        -7.94070         0.11974
C          7.52762        -7.29984         0.26266
C         -5.80427        -9.02692        -1.80247
C         -4.70010        -9.75153        -1.50965
C         -3.43346        -9.14362        -1.11869
C         -2.33893        -9.92956        -0.82825
C         -1.21513        -9.39893        -0.04198
C          0.05869       -10.21890         0.17131
C          1.34419        -9.43032         0.45596
C          2.53505       -10.09842         0.32907
C          3.84282        -9.45359         0.50018
C          5.08711       -10.07885        -0.01098
C          6.25054        -9.38469        -0.07655
O          6.35970         0.96360        -1.43289
O         -4.74205         3.39618         2.95665
O         -5.39060         5.31750        -0.26428
O          2.50016         0.78776        -0.11378
O          7.43544        -3.39348         2.11940
O          6.07812         3.81640        -1.98120
O          1.63130         4.84422        -1.12919
O          0.64194        -1.49100         3.14938
O         -1.10831         4.74031         2.17237
O          4.26726         4.62289         1.30752
O          6.62933        -4.62176        -1.13008
O         -3.21615         0.64323         2.95552
O          3.41849        -3.84512         2.84145
O          5.16909        -1.58125        -0.73561
O         -1.17671        -2.73887        -0.92083
O         -1.88914        -1.20322         3.05896
O          3.14116         7.93981        -2.39646
O         -6.80727        -0.66357         1.55262
O         -2.77593         6.95463        -1.47421
O         -0.92922        -5.27994        -1.30673
O         -4.65701        -7.30468        -3.07033
O         -2.67936        -0.36065        -0.30049
O         -1.73477        -8.85726         1.22556
O         -6.05699        -4.34127         0.05147
O         -5.75592         7.95871         2.18312
O         -0.42894        -6.60376         2.01842
O         -7.17458        -2.57451        -2.85438
O          0.23484         2.64575        -0.06501
O         -0.60420         5.61568        -1.35917
O          1.14137        -4.66760         2.69391
O          4.29699        -4.87786        -0.69232
O          4.12952        -8.75627         1.77496
O         -8.46189         1.22799         1.86368
H         -8.28190         0.32381         2.21055
O         -1.73867         9.03650        -2.71606
H         -2.27762         8.24117        -2.93527
O         10.11325         1.83218         0.86254
H          9.91931         1.05597         1.44212
O          1.14909        -2.29866        -0.14608
H          0.56212        -2.18281        -0.93341
O          4.06346         2.31833        -1.48267
H          4.69566         1.78133        -2.01572
O          8.98877        -0.49764         1.51935
H          9.25062        -1.33961         1.95655
O         -3.13891         8.44692         1.83766
H         -3.84061         8.60444         2.51157
O          5.44747        -2.43998         2.78642
H          4.79447        -2.86362         3.39610
O         -4.05716        -4.85222        -2.94825
H         -4.20395        -5.58962        -3.58694
O          2.61755         3.27143         2.60754
H          3.18329         4.07977         2.65406
O         -4.21932        -1.84787        -1.92177
H         -3.37067        -1.36204        -1.79431
O          9.84103        -3.64317         1.70767
H          9.22371        -3.92172         2.42550
O          4.69568        -7.32545        -1.50548
H          5.22325        -6.63724        -1.96947
O          3.22390        -1.26715         3.44042
H          2.52643        -1.63198         4.03098
O         -6.31961        -0.24834        -2.00407
H         -6.43362        -0.74102        -2.85029
O          7.29895         5.88205         0.73093
H          8.12288         6.38276         0.91571
O         -9.96857         5.70022         0.37719
H         -9.81103         5.78432        -0.58539
O         -0.18864       -11.12358         1.25422
H         -0.60403       -10.60024         1.97451
O         -5.66028         1.04360         3.11247
H         -5.06316         1.54186         3.71584
O          4.89303         7.22321         0.76245
H          5.73031         6.75746         1.02988
O          1.97796        -5.59012        -0.78424
H          2.77056        -5.50864        -1.37281
O          2.23640         7.69336         1.09239
H          3.17593         7.62900         1.39761
O          4.07044         5.41320        -2.29261
H          4.28077         4.50828        -2.62150
O         -4.97876        -2.39369         1.60895
H         -5.53742        -1.91743         2.26698
O          1.68604         1.09568         3.49331
H          1.15005         0.52606         4.08745
O          9.79195         2.54417        -2.69690
H          9.24623         1.74097        -2.88172
O          8.67087         0.19122        -2.08244
H          8.02465        -0.54834        -2.21354
O          7.56330        -2.12639        -1.39807
H          7.07459        -3.00914        -1.44797
O         -9.30262         2.04889        -2.30857
H         -8.36141         2.32454        -2.32197
O          5.38635         1.70966         1.91102
H          4.63923         2.10715         2.40999
O         -3.64537         5.79168         2.97658
H         -2.77384         5.51972         3.33740
O          7.57197         3.02684         1.26095
H          7.59334         3.99893         1.41727
H         11.97931        -1.30708        -1.31925
H         12.00781         1.12944        -1.31660
H         10.67610         3.39847        -1.04493
H          9.27791         5.37324        -1.62660
H          7.99580         7.48836        -1.82378
H          6.71428         9.63032        -2.02644
H          4.61076        10.86117        -1.95955
H          2.06800        10.92307        -1.17406
H         -0.34533        10.90269        -1.08249
H         -3.10168        10.80287        -1.39953
H         -5.36734        10.94676        -0.67625
H         -7.40253         9.86185         0.13849
H         -8.61770         7.64660         0.72837
H         -9.10351         4.88033         2.04969
H        -10.71985         3.55692        -0.30202
H        -11.88116         1.36521        -0.95180
H        -11.72917        -1.04481        -1.49570
H        -10.39079        -2.95528        -2.14324
H         -9.10653        -5.16130        -2.32263
H         -7.86944        -7.29877        -2.46751
H         -6.77240        -9.52225        -1.96774
H         -4.77315       -10.84672        -1.43460
H         -2.36117       -11.00522        -1.06014
H          0.23738       -10.84435        -0.74317
H          2.52577       -11.14303        -0.01981
H          5.07340       -11.15655        -0.23340
H          7.18423        -9.91187        -0.32722
H          8.44519        -7.91073         0.28990
H          9.81934        -5.79912         0.23081
H         10.85768        -3.44283        -0.88158
