         264
 CSIRO Nanostructure Databank - Neutral Graphene Oxide Data Set
C        -10.84796         0.81261         1.58856
C         -9.89105         1.37198         0.56254
C         -8.44453         0.88920         0.85678
C         -7.54595         1.38272        -0.35116
C         -6.14361         0.80367        -0.38369
C         -5.18865         1.56861        -1.31608
C         -3.89749         0.77204        -1.73483
C         -2.60160         1.56737        -1.51613
C         -1.33763         0.78094        -1.73463
C         -0.07598         1.37163        -1.18441
C          1.18315         0.58107        -1.04136
C          2.23656         1.14508        -0.37289
C          3.39297         0.33371         0.11578
C          4.58563         1.02257         0.71825
C          5.94306         0.39266         0.53930
C          7.08709         0.93712         1.35953
C          8.37026         0.16787         1.48133
C          9.61453         1.02206         1.84361
C         10.90776         0.26630         1.67819
C         -9.87077         2.87306         0.39220
C         -8.73482         3.57047         0.00396
C         -7.50930         2.89283        -0.24080
C         -6.21775         3.60204        -0.22329
C         -4.89944         2.87395        -0.53301
C         -3.83046         3.70739        -1.23623
C         -2.56622         2.91564        -1.32698
C         -1.31266         3.67477        -1.09764
C         -0.04859         2.85919        -1.02186
C          1.29632         3.50730        -1.04163
C          2.39975         2.63495        -0.48590
C          3.50363         3.33898         0.23079
C          4.62745         2.52767         0.84971
C          5.89671         3.22588         1.24410
C          7.19175         2.46431         1.64301
C          8.43668         3.02463         0.93962
C          9.58288         2.32474         1.02645
C         -8.84733         5.07849        -0.22706
C         -7.54263         5.83319        -0.07144
C         -6.24261         5.09891        -0.20096
C         -5.12424         5.95071        -0.81571
C         -3.82457         5.21516        -1.16986
C         -2.55116         5.98365        -1.08347
C         -1.28530         5.17804        -1.09302
C          0.05472         5.86274        -1.17130
C          1.37755         5.02996        -1.28750
C          2.59651         5.68434        -0.60604
C          3.66702         4.81216         0.01491
C          5.01695         5.50520         0.20737
C          6.17067         4.58218         0.61333
C          7.38942         5.30946         1.11384
C          8.24150         4.36654         0.29075
C         -7.48815         7.13401         0.29612
C         -6.18962         7.79174         0.60727
C         -4.92106         7.14830         0.08955
C         -3.68719         7.93374        -0.04778
C         -2.51944         7.28527        -0.53668
C         -1.23061         8.03095        -0.42279
C          0.05068         7.26182        -0.59907
C          1.10169         7.39193         0.46274
C          2.50487         7.00151         0.12970
C          3.59016         7.47894         1.06123
C          4.84500         6.65535         1.20730
C          6.10712         7.30082         1.73434
C          7.40691         6.61893         1.43497
C         -6.10552         9.22762         0.92645
C         -4.90670         9.85321         0.98330
C         -3.65122         9.22805         0.57376
C         -2.45432         9.89694         0.78166
C         -1.17595         9.40033         0.25542
C          0.05370        10.03646         0.84242
C          1.34174         9.79981         0.62235
C          2.67006         9.86972         0.56553
C          3.65359         8.98483         1.28268
C          4.99065         9.53777         1.62165
C          6.07441         8.77488         1.88723
C        -10.79289        -0.48783         1.91327
C         -9.62088        -1.40575         1.62377
C         -8.36505        -0.61423         1.14715
C         -7.19594        -1.35802         0.58025
C         -6.01305        -0.62699        -0.01159
C         -4.83590        -1.42142        -0.48547
C         -3.64134        -0.59944        -0.97577
C         -2.65269        -1.42925        -1.80864
C         -1.34971        -0.69408        -2.00432
C         -0.04910        -1.46878        -2.04930
C          1.20821        -0.81038        -1.54532
C          2.34415        -1.69432        -1.12722
C          3.47242        -1.11817        -0.33002
C          4.80114        -1.87800        -0.16023
C          6.03683        -0.96795        -0.05856
C          7.34687        -1.72197         0.03291
C          8.52899        -1.16163         0.76158
C          9.93932        -1.63587         0.34488
C         11.03392        -0.93766         1.11685
C         -9.86865        -2.58931         0.64986
C         -8.62823        -3.46441         0.68586
C         -7.40671        -2.77651         0.16638
C         -6.29086        -3.57137        -0.40820
C         -4.95783        -2.89958        -0.66777
C         -4.01819        -3.69662        -1.59236
C         -2.71007        -2.92714        -1.92123
C         -1.41387        -3.71949        -2.04553
C         -0.09147        -2.97886        -2.25480
C          1.21734        -3.74096        -2.22034
C          2.50184        -2.98027        -1.89801
C          3.81466        -3.69362        -1.79853
C          4.99276        -3.07528        -1.10468
C          6.23166        -3.64877        -1.22658
C          7.39232        -2.69391        -1.13014
C          9.37100        -4.05293        -0.15687
C         10.03594        -3.15340         0.54723
C         -8.52698        -4.75634         1.05434
C         -7.12744        -5.36403         1.14879
C         -6.31719        -5.07594        -0.15564
C         -5.07725        -5.82993        -0.58959
C         -3.83131        -5.02563        -0.87530
C         -2.50351        -5.68627        -0.72846
C         -1.33008        -5.11458        -1.47715
C          0.02653        -5.67789        -1.10400
C          1.16420        -5.28398        -2.04272
C          2.53089        -5.95349        -1.74284
C          3.82779        -5.19280        -1.90622
C          5.14827        -5.89042        -1.68918
C          6.44801        -5.08514        -1.60027
C          7.78554        -5.83256        -1.17072
C          9.01802        -4.94453        -1.06488
C         -7.07747        -6.71410         1.85883
C         -6.37874        -7.80232         1.45564
C         -4.85749        -7.19387        -0.07295
C         -3.65675        -7.75950         0.23666
C         -2.44672        -7.14888        -0.38041
C         -1.12605        -7.82157        -0.25024
C          0.11882        -6.99610        -0.41571
C          1.42278        -7.70547        -0.32140
C          2.58195        -7.19731        -0.91913
C          3.86062        -7.78824        -0.61632
C          5.03153        -7.27813        -1.22626
C          6.77362        -7.72546         0.07067
C          7.54817        -6.61126         0.12048
C         -5.80116        -8.88546         2.24734
C         -4.56660        -9.40369         2.00090
C         -3.50535        -8.94880         1.08625
C         -2.27511        -9.53833         1.21659
C         -1.02994        -9.18962         0.42628
C          0.24278        -9.28867         1.29380
C          1.48252        -8.82760         0.54600
C          2.72065        -9.39287         0.84700
C          3.93089        -8.86498         0.34845
C          5.11954        -9.24275         1.09261
C          6.34480        -8.63349         1.11085
O          6.16104         0.20017        -0.91593
O         -5.97020         4.38955         1.03769
O         -4.08760         4.47050        -2.44476
O          5.23630         6.46350         2.57619
O          7.36771         0.11952         2.52982
O         -1.89207        -7.92896        -1.50409
O          8.07515        -2.52275        -2.13044
O         -0.28314         1.98454         0.13521
O          4.85963         3.03207         2.20416
O         -2.90013        -0.25242         0.21126
H         -3.52854         0.17209         0.84516
O          0.71026         7.40007         1.62438
O         -3.04000        -2.05425        -3.06091
O          2.38251        -1.88663         0.31257
O          0.20163        -5.70918         0.33793
O          2.93837         6.92840        -1.26064
O         -4.03741         0.48918        -3.13310
H         -3.13415         0.35232        -3.52138
O          5.38766         6.11961        -1.03770
H          6.08606         5.55734        -1.45067
O          2.28700         2.90426        -1.92651
O          7.02026         4.18369        -0.58065
O         -7.25820        -1.03749         2.00437
O          1.66816         5.08808        -2.70166
H          1.82597         6.03461        -2.92218
O         -4.35418        -2.37815         0.53314
O          0.90721        -0.86547        -2.96608
O         -1.34500         4.42239         0.18612
O          3.02779         4.29887         1.22772
O          0.39114       -10.63185         1.73849
H          0.21428       -11.20543         0.96093
O        -10.04655        -2.03906        -0.66424
H         -9.54391        -2.57517        -1.31573
O          5.98971        -5.56207        -2.87810
O          7.69709        -2.22438         1.34382
O          4.72784        -2.53134         1.13307
H          4.29850        -1.91662         1.76996
O          3.62128         0.37645         1.58300
O          3.10923         8.08025         2.27822
O          0.60919        -3.34346        -3.47898
O          7.36045         2.70856         3.00812
O          9.57000         1.36958         3.23053
H          8.68667         1.81699         3.41023
O         -5.64933         6.49015        -2.05054
H         -5.40850         5.86416        -2.77225
O         -5.32816         6.95962         1.47481
O         -1.34738         0.27360        -3.11565
O          3.44775        -2.93670        -3.00036
O         -6.04402        -7.89990         0.09274
O          0.26689         7.03036        -2.01505
O         -5.57793         0.45315         0.89934
O         -6.29880        -5.78854        -1.40372
O         -0.86707       -10.19042        -0.60794
H         -1.46075        -9.92914        -1.34930
O         -1.56233        -4.89572        -2.89033
O         -4.27369         2.51444         0.71011
H         -4.52859         3.18965         1.38229
O         -8.01264         1.57172         2.03947
H         -7.14748         1.17471         2.29499
O          6.17705        -8.05342        -1.19380
O          3.23508        -5.89231        -3.02903
O         -1.19585         9.26003        -1.21326
O         -8.08254         0.95118        -1.61245
H         -9.02838         1.23596        -1.68246
O         -9.32125        -2.05025         2.87854
H         -8.84040        -1.41018         3.44494
O         -7.32374        -3.01622        -1.29455
O         -3.03037        -4.85783         0.34579
O         -4.69484        -3.97709        -2.81439
H         -4.50130        -3.25336        -3.45197
O          8.10003        -6.76572        -2.20277
H          7.38728        -6.73712        -2.88497
O          0.77377        -5.87709        -3.29107
H          0.55429        -5.15341        -3.92514
O         -5.88705         1.98828        -2.48220
H         -5.56525         1.44711        -3.24173
O         10.18537        -1.27560        -1.02261
H          9.57076        -1.77052        -1.62058
O         -9.85355         5.64722         0.60784
H         -9.54658         5.59192         1.53627
O         -6.38739        -4.50493         2.07385
H         -6.92301        -4.37360         2.88439
O        -10.40822         0.82839        -0.69501
H        -10.39708        -0.16247        -0.65029
H         12.02388        -1.41876         1.08627
H         11.78179         0.72899         2.16183
H         10.52229         2.72124         0.60886
H          9.11977         4.76067        -0.26936
H          8.34521         7.18724         1.52209
H          7.02883         9.27302         2.11972
H          5.08524        10.63352         1.67076
H          3.11793        10.56576        -0.16973
H         -0.17534        10.79663         1.61549
H         -2.45567        10.82744         1.36962
H         -4.85860        10.90955         1.28681
H         -7.03245         9.77591         1.15079
H         -8.41678         7.70618         0.44546
H         -9.20442         5.21016        -1.28830
H        -10.79994         3.43763         0.56699
H        -11.69702         1.43011         1.91987
H        -11.56047        -0.91466         2.57797
H        -10.77889        -3.17082         0.95647
H         -9.40266        -5.33057         1.39276
H         -7.35296        -6.64852         2.92377
H         -6.37263        -9.27829         3.10268
H         -4.24485       -10.22409         2.66380
H         -2.16753       -10.38972         1.90730
H          0.12402        -8.63755         2.20220
H          2.75177       -10.21234         1.58059
H          4.92866        -9.98152         1.88780
H          7.04420        -8.86973         1.92654
H          8.03782        -6.29995         1.05340
H          9.75184        -5.13893        -1.87063
H         10.64491        -3.49773         1.40265
