         228
 CSIRO Nanostructure Databank - Neutral Graphene Oxide Data Set
C        -11.04232         0.66161         0.33129
C         -9.85336         1.42523         0.01910
C         -8.58128         0.72661        -0.18885
C         -7.46556         1.40528        -0.59255
C         -6.20564         0.66374        -1.02661
C         -4.95368         1.47789        -0.68640
C         -3.65358         0.74247        -0.78910
C         -2.41279         1.40077        -0.27772
C         -1.10170         0.67753        -0.39697
C          0.16345         1.47897        -0.55619
C          1.38351         0.78888        -1.04980
C          2.52468         1.50765        -1.16449
C          3.87210         0.86017        -1.43383
C          4.97603         1.56183        -0.63032
C          6.11678         0.80138        -0.22510
C          7.23737         1.45657         0.49575
C          8.56594         0.78429         0.59753
C          9.80343         1.58596         0.76764
C         11.04092         0.83370         0.81294
C         -9.93364         2.78042        -0.12247
C         -8.78548         3.59461        -0.54780
C         -7.54837         2.86118        -1.07387
C         -6.18379         3.67281        -0.94214
C         -5.00501         2.81568        -0.43839
C         -3.76233         3.58210        -0.10446
C         -2.43536         2.86909        -0.04828
C         -1.12841         3.67562         0.01625
C          0.08050         2.95633        -0.59199
C          1.20423         3.69105        -0.87015
C          2.47584         2.99093        -1.16241
C          3.76855         3.73150        -0.88070
C          4.92055         2.93593        -0.43401
C          5.97284         3.67667         0.29496
C          7.21068         2.93572         0.72128
C          8.48277         3.68902         0.82415
C          9.73064         2.95746         0.87647
C         -8.77705         5.03421        -0.14714
C         -7.49354         5.75645         0.00432
C         -6.26016         5.05264        -0.28417
C         -5.07788         5.77083        -0.20425
C         -3.77792         5.06382        -0.17543
C         -2.54742         5.79920        -0.60707
C         -1.24402         5.07167        -0.59277
C          0.01565         5.86252        -0.61447
C          1.21610         5.14702        -0.75673
C          2.46864         5.84021        -0.67384
C          3.70119         5.16482        -0.53775
C          4.86993         5.86698        -0.15005
C          6.04834         5.14314         0.18493
C          7.21682         5.81545         0.59911
C          8.43193         5.07096         0.84742
C         -7.49142         7.02774         0.50345
C         -6.21917         7.73122         0.88675
C         -5.01582         7.14187         0.19935
C         -3.82937         7.87427         0.09519
C         -2.59520         7.30308        -0.50389
C         -1.27865         8.08237        -0.42051
C         -0.00637         7.29137        -0.56905
C          1.21553         7.95000        -0.71499
C          2.46425         7.26736        -0.65411
C          3.68337         7.96028        -0.44179
C          4.85202         7.30091        -0.02958
C          5.99727         7.97507         0.55063
C          7.16073         7.22868         0.77668
C         -6.23987         9.23366         0.80140
C         -5.07767         9.92187         0.71742
C         -3.80986         9.25350         0.47572
C         -2.58619         9.91733         0.65059
C         -1.32479         9.36123         0.35500
C         -0.18271        10.01256         0.92230
C          1.11557         9.91493         0.43455
C          2.31350        10.31337         1.10788
C          3.57626         9.94978         0.65576
C          4.82879        10.10149         1.34149
C          5.92926         9.29773         1.14394
C        -11.03133        -0.69163         0.45506
C         -9.82603        -1.48639         0.39767
C         -8.57902        -0.80129        -0.18396
C         -7.19834        -1.32752         0.18013
C         -6.08432        -0.72483        -0.42167
C         -4.87337        -1.44716        -0.51795
C         -3.61766        -0.75701        -0.89058
C         -2.32901        -1.48521        -0.69126
C         -1.10366        -0.75625        -0.68537
C          0.14344        -1.44110        -0.87059
C          1.32712        -0.67642        -1.45406
C          2.65952        -1.37174        -1.24066
C          3.84282        -0.63724        -1.18698
C          5.09014        -1.29887        -0.99952
C          6.19625        -0.57867        -0.52356
C          7.47909        -1.30883        -0.36927
C          8.71016        -0.59714         0.05534
C          9.91136        -1.34939         0.51293
C         11.09484        -0.53125         0.72543
C         -9.98094        -2.84463         0.59954
C         -8.87530        -3.73405         0.90248
C         -6.99055        -2.58107         0.78079
C         -5.91717        -3.41921         0.46187
C         -4.81401        -2.81090        -0.16801
C         -3.59180        -3.59216        -0.49101
C         -2.31003        -2.86836        -0.60150
C         -1.00093        -3.53852        -0.19138
C          0.18180        -2.81166        -0.78450
C          1.37504        -3.53514        -1.31967
C          2.69638        -2.80823        -1.14207
C          3.90328        -3.49612        -1.11078
C          5.21196        -2.76799        -1.33843
C          6.35705        -3.48265        -0.64916
C          7.43195        -2.78475        -0.21358
C          8.49214        -3.38738         0.68533
C          9.84213        -2.69997         0.64610
C         -8.57897        -5.03107         0.58499
C         -7.27444        -5.64346         0.83941
C         -5.98433        -4.87426         0.82802
C         -4.73886        -5.68590         0.54297
C         -3.58720        -5.04844        -0.17912
C         -2.29779        -5.81543        -0.20198
C         -1.00207        -5.08850        -0.37564
C          0.17591        -5.82414        -0.99436
C          1.43978        -5.02283        -1.03561
C          2.64651        -5.57344        -1.37405
C          3.93413        -4.95210        -1.08629
C          5.03958        -5.70218        -0.71107
C          6.39834        -4.99894        -0.77243
C          7.47216        -5.60510         0.10828
C          8.51225        -4.88410         0.60731
C         -7.21604        -7.02474         0.92885
C         -6.00823        -7.79880         0.86757
C         -4.79300        -7.16225         0.50499
C         -3.64699        -7.91492         0.20820
C         -2.45593        -7.29451        -0.41824
C         -1.17769        -8.08525        -0.54156
C          0.12619        -7.37337        -0.88356
C          1.35201        -8.14065        -0.53558
C          2.62492        -7.70925        -0.92811
C          3.82504        -8.02308        -0.28790
C          5.10562        -7.26729        -0.66960
C          6.25820        -7.75966         0.19482
C          7.37783        -7.01094         0.41872
C         -6.00925        -9.21585         1.01092
C         -4.84866        -9.94634         0.85684
C         -3.62878        -9.32114         0.45248
C         -2.38926       -10.01491         0.46795
C         -1.15652        -9.39187         0.16121
C          0.06158        -9.91211         0.61372
C          1.30977        -9.26743         0.33889
C          2.53788        -9.77532         0.83460
C          3.77149        -9.14610         0.58182
C          5.01176        -9.68547         1.09970
C          6.18552        -9.04788         0.85783
O          5.43377        -7.64641        -2.04777
H          4.61404        -7.50236        -2.57566
O         -6.05186         7.43454         2.33390
H         -5.17336         7.78183         2.59948
O          3.68585         9.34966        -0.61342
O         -8.69781        -1.15577        -1.60434
H         -7.95465        -0.71711        -2.08921
O         -3.77274         4.40027         1.14359
O         -6.32476         0.44100        -2.45734
H         -6.67863         1.26457        -2.86692
O          2.71061        -6.82048        -2.00298
O         -0.22996         0.95838         0.77380
O         -2.11396        -7.95298        -1.66382
O         -2.56474         1.92072         1.07927
O          6.82969        -5.24056        -2.16140
H          6.62753        -6.19174        -2.35714
O         -3.89315        -4.61030        -1.54537
O         -0.89885        -3.26547         1.24125
H         -1.30130        -4.03368         1.71461
O         -3.56069         0.08722        -2.09396
O          7.65262         0.77493         1.74758
O         -2.09704         8.05975        -1.63898
O          1.15505        -3.48494        -2.79468
H          1.88702        -3.97703        -3.22756
O         -7.92172        -3.06223         1.69531
O         -0.81864         3.88206         1.41012
H         -1.04116         3.03743         1.86889
O          1.24761         9.34184        -0.84509
O          5.46215        -2.86530        -2.77730
H          6.00022        -3.68244        -2.92010
O         -5.01936        -5.18492         1.89475
O         -0.01226        -6.67940        -2.15545
O          4.20040         1.02160        -2.83552
H          3.98560         1.95653        -3.07261
O         -9.18727         4.67457        -1.49257
H         -8.37420         3.48298        -2.76390
O         -1.38607        -5.66517         0.93937
O          6.18544         3.27500         1.70928
O          8.46796        -0.80099        -1.37358
O          8.00801        -3.09863         2.05230
H          7.17180        -3.59326         2.18688
O          1.08449        -0.65760        -2.89271
H          1.06369        -1.60309        -3.18646
O         -2.00375         5.21231        -1.83500
O         -7.81225         2.71222        -2.50543
O          3.28889         3.52032        -2.27255
O         -5.72833         4.00240        -2.28238
H         -6.19129         3.39720        -2.91087
H         12.06283        -1.04034         0.84874
H         11.97221         1.39712         0.97713
H         10.65907         3.53933         0.98709
H          9.36137         5.64041         1.00149
H          8.03885         7.73351         1.20821
H          6.84497         9.59400         1.68226
H          4.91733        10.92211         2.07073
H          2.21928        10.79018         2.09388
H         -0.36206        10.67257         1.78578
H         -2.60819        10.92435         1.09499
H         -5.07342        11.02059         0.78069
H         -7.19212         9.76006         0.96362
H         -8.44673         7.50668         0.76857
H         -9.61932         5.40339         0.48004
H        -10.88979         3.29900         0.04044
H        -11.98617         1.21497         0.44307
H        -11.97041        -1.21608         0.68972
H        -11.00943        -3.23506         0.69228
H         -9.33620        -5.65373         0.08495
H         -8.16458        -7.58159         0.98164
H         -6.94545        -9.72299         1.28597
H         -4.85553       -11.03222         1.03032
H         -2.37005       -11.03769         0.87445
H          0.06397       -10.83671         1.20915
H          2.52192       -10.67494         1.46696
H          4.98621       -10.62005         1.67736
H          7.12130        -9.44546         1.27969
H          8.18434        -7.44147         1.03495
H          9.28221        -5.40515         1.20022
H         10.72766        -3.27869         0.95214
