         324
 CSIRO Nanostructure Databank - Neutral Graphene Oxide Data Set
C          1.56296         1.25421         0.29656
C          1.45952         2.47954         1.02194
C          2.65108         0.81971        -0.42929
C          2.41329         3.48741         1.10848
C          1.07698         6.53857         0.47074
C          1.15067         7.84514        -0.02852
C          2.23093         5.85246         0.82507
C          2.36628         8.51387        -0.01850
C          1.14003        10.73986        -0.03311
C          1.10253        12.07999        -0.05785
C          2.40797         9.98110        -0.39425
C          2.37097        12.82836        -0.26866
C          1.23803        15.10096        -0.77456
C          1.30910        16.44752        -0.88239
C          2.45566        14.29619        -0.55897
C          2.56409        17.16477        -0.75978
C          2.60991        18.56324        -1.00826
C          3.94160         1.41414        -0.24668
C          3.80818         3.31465         0.85771
C          5.01321         1.55634        -1.08821
C          4.85704         4.18902         0.53370
C          3.53977         6.39260         0.59593
C          3.56592         7.80006         0.29271
C          4.78773         5.64842         0.62391
C          4.80964         8.51283         0.38994
C          3.63305        10.67023         0.16727
C          3.55185        12.13534         0.35440
C          4.80314         9.98130         0.39867
C          4.79694        12.92696         0.61635
C          3.70162        15.03364        -0.20143
C          3.74088        16.47568        -0.39284
C          4.80486        14.38030         0.28179
C          4.96530        17.19520        -0.23481
C          3.80043        19.25262        -0.94540
C          5.00533        18.58558        -0.57131
C          6.16264         2.32251        -0.63647
C          6.10350         3.56324         0.10577
C          7.40867         1.82183        -1.03153
C          7.32983         4.25657         0.31617
C          6.01056         6.36588         0.65362
C          5.98321         7.80086         0.65238
C          7.29749         5.66595         0.66558
C          7.20090         8.55388         1.01585
C          6.05550        10.71031         0.58789
C          6.07386        12.17436         0.57756
C          7.24454        10.01285         0.76420
C          7.25964        12.85793         0.51511
C          6.02898        15.13094         0.62539
C          6.15382        16.55828         0.25092
C          7.31071        14.32012         0.74423
C          7.37481        17.25112         0.31891
C          6.24938        19.24427        -0.59344
C          7.44069        18.58314        -0.23823
C          8.62357         2.29754        -0.49626
C          8.57889         3.56573         0.20446
C          9.80629         1.57261        -0.86775
C          9.77597         4.25488         0.59459
C          8.50142         6.36610         0.81872
C          8.49253         7.80132         1.17428
C          9.77749         5.69198         0.74458
C          9.78041         8.57924         1.14706
C          8.52918        10.67965         0.66090
C          8.49858        12.09711         0.13429
C          9.72319        10.00678         0.74875
C          9.76716        12.88811         0.28344
C          8.61969        15.05588         0.65302
C          8.65703        16.58894         0.72093
C          9.78059        14.24625         0.20881
C          9.93294        17.40995         0.58369
C          8.68238        19.23001        -0.51089
C          9.92438        18.64589        -0.22989
C         11.00596         1.65615        -0.15976
C         10.98308         3.56412         0.81501
C         12.32960         1.33951        -0.51358
C         12.27518         4.14362         0.75512
C         10.99962         6.34612         0.91422
C         11.07502         7.82109         1.06296
C         12.26783         5.60058         1.00220
C         12.31992         8.49585         0.59332
C         11.03487        10.70547         0.58144
C         11.05121        12.16617         0.26564
C         12.20631         9.90569         0.03660
C         12.27613        12.84535        -0.22171
C         10.93946        14.88292        -0.47370
C         11.32172        16.87914         1.00762
C         12.27363        14.24682        -0.37172
C         12.45996        17.29880         0.17486
C         11.14568        19.30461        -0.45404
C         12.41091        18.66607        -0.27486
C         13.46993         2.02865         0.00888
C         13.46239         3.41640         0.48527
C         14.71110         1.36897        -0.15999
C         14.72561         4.14362         0.39663
C         13.58645         6.35782         0.84550
C         13.48794         7.80713         0.51176
C         14.77155         5.57965         0.44727
C         14.76922         8.52546         0.28324
C         13.48695        10.71294         0.02431
C         13.48065        12.07536        -0.23415
C         14.77565        10.00322         0.06350
C         14.70413        12.76896        -0.70097
C         13.46485        15.02778        -0.45090
C         13.54430        16.45964        -0.26706
C         14.66829        14.27782        -0.87273
C         14.78679        17.14341        -0.55626
C         13.61588        19.30998        -0.60689
C         14.83553        18.58612        -0.59208
C         15.95109         2.02448        -0.01904
C         15.92135         3.44761         0.11241
C         17.19446         1.32120        -0.09945
C         17.20124         4.14475        -0.25249
C         15.98584         6.27514         0.15802
C         15.94946         7.72143        -0.13924
C         17.20343         5.61983        -0.02373
C         17.24188         8.46041        -0.41688
C         15.99035        10.68516        -0.41749
C         16.00703        12.06081        -0.58848
C         17.29289         9.96510        -0.65128
C         17.25315        12.76083        -0.60071
C         15.97755        14.98863        -1.01023
C         16.00998        16.43972        -0.77121
C         17.28656        14.19851        -0.87686
C         17.25101        17.09470        -0.85390
C         16.07142        19.25174        -0.71481
C         17.30070        18.54626        -0.81533
C         18.43393         1.96653         0.09737
C         18.40048         3.43364         0.33128
C         19.67284         1.31864         0.10709
C         19.69326         4.20440         0.41807
C         18.45737         6.33769        -0.01743
C         18.47428         7.73857        -0.09283
C         19.69930         5.65768         0.19443
C         19.61913         8.46645         0.46984
C         18.42533        10.70953         0.00156
C         18.44488        12.09726        -0.15742
C         19.54586         9.99222         0.58973
C         19.67533        12.84444         0.08483
C         18.50232        14.95344        -0.56196
C         18.49474        16.35298        -0.77347
C         19.68069        14.26596        -0.16615
C         19.72844        17.06069        -0.71472
C         18.51675        19.21845        -0.95699
C         19.77966        18.46986        -1.26304
C         20.91747         2.03284         0.17745
C         20.94508         3.46012         0.28963
C         22.14142         1.35060         0.04012
C         22.15532         4.18537         0.19533
C         20.93543         6.36340         0.24704
C         20.94527         7.81024         0.47024
C         22.14120         5.62396         0.22591
C         22.11099         8.52078         0.73657
C         20.81179        10.74983         0.87178
C         20.85683        12.18556         0.47217
C         22.10725         9.97801         1.09191
C         22.11581        12.87294         0.42760
C         20.88202        15.00404        -0.00021
C         20.87925        16.40555        -0.27556
C         22.11158        14.29089         0.23178
C         22.08844        17.20235        -0.00319
C         21.00905        19.24315        -0.87901
C         22.14889        18.62843        -0.39784
C         23.37660         2.04552        -0.01759
C         23.38835         3.47706         0.05915
C         24.59754         1.34497        -0.17563
C         24.63663         4.18188         0.01593
C         23.40754         6.35239         0.13598
C         23.39876         7.84404         0.44120
C         24.67488         5.59351         0.16874
C         24.69228         8.47992         0.86659
C         23.41607        10.81820         1.20763
C         23.37205        12.18083         0.53555
C         24.70257         9.98008         0.98263
C         24.57507        12.86805         0.34840
C         23.34116        14.98060         0.16205
C         23.39247        16.44458         0.17490
C         24.55553        14.27837         0.08980
C         24.65612        17.14924        -0.05367
C         23.39193        19.29272        -0.20767
C         24.61564        18.58638        -0.03231
C         25.83101         2.02650        -0.26449
C         25.85242         3.46311        -0.15662
C         27.04817         1.33055        -0.45578
C         27.08546         4.16777        -0.23389
C         25.90989         6.27014         0.20679
C         26.02469         7.69880         0.70652
C         27.10796         5.57685        -0.02746
C         27.06667         8.46055        -0.10344
C         25.98142        10.71290         0.64019
C         25.90552        12.19297         0.39173
C         27.06133         9.96686        -0.11198
C         26.98932        12.83134        -0.39646
C         25.74980        14.97895        -0.27781
C         25.86013        16.42637        -0.24306
C         26.79802        14.15078        -0.76877
C         27.11815        17.14170        -0.13697
C         25.83966        19.25280         0.17016
C         27.05266        18.52496         0.27150
C         28.27244         2.02119        -0.57360
C         28.29890         3.44251        -0.46760
C         29.49865         1.31919        -0.81106
C         29.53425         4.15293        -0.66048
C         28.43937         6.29031         0.06580
C         28.36114         7.76960        -0.28201
C         29.54913         5.55449        -0.64142
C         29.50304         8.49243        -0.50597
C         28.33442        10.67235        -0.42906
C         28.26101        12.13482        -0.68617
C         29.50116         9.95105        -0.60034
C         29.62529        12.93889        -0.74749
C         28.66239        15.24841        -0.77980
C         28.43665        16.54630        -0.18643
C         29.68800        14.38935        -0.43653
C         29.52496        17.15476         0.47080
C         28.17853        19.15011         0.85488
C         29.37230        18.43884         1.09087
C         30.69283         1.99729        -0.95331
C         30.74310         3.41184        -0.89242
C         31.98866         4.12065        -0.98147
C         30.79214         6.27080        -0.93399
C         30.79407         7.77931        -0.77735
C         32.03218         5.48233        -0.97041
C         32.01535         8.48623        -0.33056
C         30.83406        10.63049        -0.64495
C         30.89399        12.14595        -0.55409
C         31.99685         9.81932        -0.18648
C         31.99833        12.79187         0.19813
C         30.91818        14.99713         0.10028
C         30.84250        16.49166         0.53683
C         31.99034        14.08914         0.55257
C         31.83345        17.04842         1.46023
C         30.41836        18.97529         1.88656
C         31.60212        18.24717         2.10194
O         19.18379         9.12818         1.71858
O         28.90505        12.54337        -1.92817
O          6.55552        14.73216         1.92514
O         21.26456        10.39129         2.21096
O         16.41821         7.89680        -1.52215
O          4.17282         1.96421         1.03750
O         10.59769         8.35513         2.35165
O         14.44566        13.37770        -2.01213
O         27.68008        14.77673        -1.65793
O          8.77766        15.78635         1.93252
O         10.72307        15.83449        -1.22966
O         23.44983         7.38168        -0.94673
O          2.65226        13.26374        -1.64260
O         22.63275        16.98778         1.33204
O         15.07891         9.39443         1.42581
O         26.41089        11.62933         1.68111
O         24.71754         9.09843         2.18005
O          7.68817         8.14179         2.35104
O         18.85119         3.84477         1.63333
O         31.41285        16.07803        -0.75972
O         13.07668         6.01062         2.16896
O         31.24479        11.44353        -1.79130
O          3.87433        12.58142         1.71415
O         26.52191         9.18914        -1.24308
O         10.88731         2.21446         1.13417
O         10.61719        17.80407         1.85333
O         11.32849        11.62668         1.65810
O          1.95239         4.70896         1.58026
O         16.72277        14.58816        -2.18806
O         30.78627         7.22486        -2.12575
O         11.43549        15.65015         1.64397
H         10.64383        15.55492         2.23305
O         26.59620         7.55148         2.03879
H         26.16392         8.22719         2.62142
O         19.84187        18.31556        -2.74036
H         19.05579        17.79510        -3.01370
O         11.83599         9.68982        -1.37687
H         12.64591         9.46522        -1.88217
O         23.51845        11.24203         2.58802
H         23.51847        10.43932         3.15304
O         17.37313         3.97234        -1.71189
H         16.66279         4.48133        -2.15713
O         28.86498         6.23939         1.47753
H         28.11465         6.61240         2.00823
O          2.52973        10.05087        -1.85181
H          2.50740        11.00006        -2.10697
O         17.59208        10.10550        -2.08849
H         17.00895         9.47023        -2.56295
O          8.42111        11.94443        -1.33921
H          7.63869        11.38534        -1.53646
H          0.62010         0.69859         0.17761
H          0.45041         2.74816         1.36732
H          2.52741         0.01109        -1.16377
H          0.10279         6.05959         0.63070
H          0.22612         8.34298        -0.34647
H          0.21171        10.18619         0.16699
H          0.16647        12.62609         0.13376
H          0.28211        14.57688        -0.91432
H          0.40042        17.03330        -1.08582
H          1.68233        19.08376        -1.28691
H          5.07641         1.01226        -2.04137
H          3.83685        20.32548        -1.18189
H          7.43183         0.91033        -1.64730
H          6.30198        20.28283        -0.95188
H          9.74864         0.93068        -1.75975
H          8.65397        20.22405        -0.98172
H         12.51501         0.55923        -1.26783
H         11.13338        20.30692        -0.90720
H         14.70238         0.30464        -0.43942
H         13.61737        20.38152        -0.85121
H         17.17398         0.23213        -0.25581
H         16.08373        20.35132        -0.74491
H         19.71106         0.22712        -0.02867
H         18.53120        20.31874        -0.95728
H         22.14166         0.25421        -0.05101
H         21.03813        20.31198        -1.14070
H         24.58201         0.24729        -0.24349
H         23.43463        20.38578        -0.32385
H         27.03524         0.23383        -0.53851
H         25.84863        20.33756         0.34943
H         29.47647         0.22171        -0.87483
H         28.08054        20.17986         1.22847
H         31.62569         1.43914        -1.12004
H         32.91834         3.53945        -1.07032
H         32.98749         6.00906        -1.10374
H         32.92182         7.91065        -0.09338
H         32.91412        10.33749         0.12495
H         32.86912        12.18035         0.47169
H         32.85395        14.51365         1.08382
H         32.80310        16.54395         1.56722
H         30.28653        19.96087         2.35337
H         32.37700        18.66579         2.75969
