         320
 CSIRO Nanostructure Databank - Neutral Graphene Oxide Data Set
C         30.49457        31.42317        -0.52543
C         30.48666        32.53464         0.00914
C         30.24579        35.99629         0.21881
C         30.22025        37.22765         0.26973
C         30.27790        40.51270         0.29919
C         30.22328        41.73940         0.41049
C         32.80869        29.04979        -1.23693
C         31.69838        29.45453        -1.68571
C         32.86948        31.75496        -1.29728
C         31.29716        30.88745        -1.63971
C         32.73978        33.10679        -0.67158
C         31.29640        33.74309        -0.43571
C         32.62249        35.87712        -0.04153
C         31.33785        34.98956         0.44959
C         32.59461        37.32605         0.54987
C         31.35525        38.17696         0.02608
C         32.67906        40.30041         0.33433
C         31.35055        39.54891         0.69233
C         32.62195        41.76894        -0.03568
C         31.45023        42.54761         0.76160
C         32.67017        44.50111         0.01162
C         31.61412        43.96370         0.34317
C         35.47345        27.27815        -0.76946
C         35.12650        28.66579        -0.23803
C         34.08914        29.47145        -0.95570
C         35.29636        31.64852        -0.43722
C         34.22298        30.97067        -1.30739
C         35.22085        32.92124         0.04112
C         33.87470        33.62864         0.21621
C         35.11643        35.89937         0.71221
C         33.89664        35.14485         0.24716
C         35.15341        37.36600         0.23669
C         33.85698        38.10764         0.17964
C         35.16518        40.29196        -0.10183
C         33.83867        39.60518         0.22053
C         35.12695        41.81015         0.10123
C         33.95801        42.48636        -0.03721
C         35.19412        44.71076        -0.03515
C         33.96395        43.97205        -0.53748
C         35.40589        46.13074        -0.53322
C         37.84414        27.09501        -0.11326
C         36.53678        26.67782        -0.54966
C         37.72436        28.57014         0.20995
C         36.51223        29.34998        -0.27631
C         37.69129        31.47782         0.45498
C         36.56265        30.85278        -0.33706
C         37.72458        32.99121         0.38515
C         36.39950        33.64541         0.73418
C         37.63604        35.92558         0.63731
C         36.37569        35.14085         0.21190
C         37.67775        37.42498         0.17000
C         36.38792        38.13226         0.43004
C         37.68418        40.32354         0.28205
C         36.34951        39.62191         0.64105
C         37.69745        41.83702         0.49810
C         36.45700        42.49408        -0.11009
C         37.87317        44.70790        -0.55816
C         36.51086        43.96143        -0.41980
C         37.84963        46.22429        -0.28265
C         36.51095        46.68858        -0.39137
C         40.35852        24.33291         0.04214
C         39.35023        25.05671        -0.03584
C         40.29083        27.16766         0.67918
C         39.00547        26.42554         0.13304
C         40.27224        28.55150         0.00700
C         39.00873        29.30940         0.38333
C         40.22254        31.43610         0.21537
C         39.02433        30.78355         0.28243
C         40.17147        32.94069         0.04062
C         38.97903        33.42946         0.84392
C         40.23535        36.02266         0.47597
C         38.92669        35.45955        -0.04592
C         40.23389        37.38262         0.56650
C         38.91516        38.12714         0.82606
C         40.19550        40.34575         1.02109
C         38.98253        39.60217         0.44596
C         40.24034        41.85632         0.67446
C         39.02936        42.50453        -0.01227
C         40.31026        44.77299         0.07028
C         38.97457        44.05890         0.29664
C         40.32544        46.13313        -0.07672
C         39.04120        46.88052        -0.17619
C         40.31913        48.97105        -0.45851
C         39.29907        48.28927        -0.25376
C         42.92229        24.35805         0.57251
C         41.55092        24.87301         0.81926
C         42.76115        27.09667         0.25205
C         41.60784        26.41333         0.46408
C         42.79510        28.61044         0.50011
C         41.53147        29.36584         0.16931
C         42.72652        31.52642        -0.21401
C         41.49420        30.73580         0.13433
C         42.70258        33.07736        -0.34138
C         41.47333        33.71289         0.30470
C         42.76457        35.97528         0.19601
C         41.49439        35.22086         0.43129
C         42.75525        37.35443         0.17524
C         41.45303        38.17621         0.11812
C         42.80817        40.32821         0.72276
C         41.52250        39.56811         0.78114
C         42.87414        41.86850         0.97182
C         41.54666        42.59075         0.63955
C         42.87818        44.66482        -0.10625
C         41.56566        43.96339         0.00300
C         42.90516        46.16590         0.10794
C         41.61687        46.88450        -0.40957
C         42.96404        48.91794        -0.47670
C         41.63820        48.44683         0.04592
C         43.95189        25.04360         0.60520
C         45.28918        27.22086         0.63767
C         44.15996        26.42171         0.03378
C         45.28593        28.76144         0.70955
C         44.08072        29.25049        -0.08400
C         45.35201        31.55094        -0.41322
C         44.02283        30.77754        -0.28376
C         45.27078        32.99301         0.12228
C         43.99924        33.79361         0.03321
C         45.28533        35.92444         0.00095
C         44.00027        35.17195         0.12987
C         45.31707        37.40402         0.17399
C         44.02000        38.12693         0.01113
C         45.31446        40.31055         0.56429
C         44.02147        39.62203         0.16684
C         45.33969        41.74899         0.02047
C         44.10436        42.56194         0.38605
C         45.47395        44.57304        -0.16320
C         44.13515        43.90165         0.15638
C         45.47328        46.14875         0.04589
C         44.25898        46.77181        -0.63524
C         43.98992        48.22807        -0.47765
C         47.71849        27.35749         1.10848
C         46.56856        26.81028         0.88945
C         47.88750        28.57752         0.18062
C         46.59411        29.42258         0.24006
C         47.89554        31.54903         0.31119
C         46.60163        30.76770         0.04298
C         47.85608        32.99183        -0.26401
C         46.58466        33.70824         0.18773
C         47.88025        35.90045         0.24012
C         46.58437        35.18854        -0.02480
C         47.83151        37.38709         0.36832
C         46.50081        38.07021         0.28731
C         47.83368        40.18852         0.65043
C         46.56319        39.56250         0.05496
C         47.80747        41.71105         0.54648
C         46.65711        42.41212         0.39952
C         47.95785        44.57398         0.52025
C         46.58882        43.90100         0.67159
C         47.80864        45.81724        -0.04074
C         46.86883        46.50684        -0.58788
C         50.42845        28.91960         0.46016
C         49.15340        29.35588         0.40838
C         50.43581        31.60671         0.24635
C         49.16817        30.80643        -0.16346
C         50.39192        33.02070        -0.35037
C         49.15032        33.77521        -0.02944
C         50.29918        35.94620        -0.40023
C         49.15254        35.18380        -0.10139
C         50.14224        37.39722        -0.70342
C         49.04288        38.16716        -0.05204
C         50.06843        40.42525        -0.65015
C         49.04111        39.52499         0.00999
C         50.32894        41.70110         0.17545
C         49.12634        42.37643         0.78056
C         50.46611        44.39796         0.89252
C         49.09509        43.89420         1.21809
C         51.61159        29.44916         0.27227
C         52.82980        31.68838        -0.28197
C         51.78805        30.77134         0.01153
C         52.83962        32.93644        -0.33800
C         51.66872        33.79425        -0.60750
C         52.55007        36.12635        -1.22635
C         51.69855        35.27394        -0.32413
C         52.47463        37.34707        -1.39211
C         51.29755        38.21384        -1.31765
C         52.41804        40.48504        -0.87891
C         51.38715        39.63933        -0.98363
C         52.66466        41.73535        -0.57108
C         51.64348        42.47636        -0.04939
C         51.44240        43.81339         0.41134
O         45.96351        35.56840        -1.28481
O         32.12329        41.84263        -1.45543
O         41.66353        34.29416         1.60006
O         36.86792        30.04819        -1.50778
O         43.97755        39.06889        -1.16150
O         42.37463        39.61897         1.94726
O         42.22148        44.13791        -1.31000
O         47.96895        36.53753         1.56220
O         38.94254        35.17233        -1.24137
O         43.22118        30.99583        -1.50057
O         36.47936        42.97254        -1.49424
O         50.02266        41.55709         1.61314
O         50.21761        37.78240        -2.16110
O         38.22687        28.83693         1.55764
O         33.00963        32.94886        -2.10114
O         40.68166        42.63294         1.82514
O         38.46527        39.90804        -0.87298
O         34.47417        37.61867        -1.06721
O         45.95489        33.23098         1.41141
O         50.88564        33.29170        -1.70962
O         37.29643        31.25230         1.87370
H         37.56279        30.32586         2.12180
O         35.05440        36.01830         2.15049
H         35.41735        35.19010         2.54770
O         36.12482        39.83599         2.05992
H         36.74724        39.25682         2.55447
O         46.70738        39.68698        -1.37188
H         45.82516        39.51288        -1.78131
O         33.49166        33.23349         1.57405
H         34.26415        33.42785         2.16020
O         31.50535        38.41577        -1.36831
H         31.55946        37.52951        -1.80970
O         35.44050        40.12457        -1.50206
H         34.65013        40.44544        -2.00460
O         41.63995        48.54660         1.45272
H         41.67200        49.49251         1.70537
O         45.28581        40.36600         2.00673
H         46.20079        40.21740         2.36141
O         45.55043        31.72155        -1.83773
H         45.51008        30.83538        -2.25677
O         30.75081        34.12240        -1.66769
H         30.85050        33.37953        -2.30682
O         34.68445        31.03552        -2.66559
H         34.52781        31.95627        -2.97737
O         44.36343        26.26508        -1.36758
H         45.32563        26.22224        -1.54445
O         45.25732        41.67675        -1.41866
H         45.44175        42.58894        -1.76902
O         39.21762        42.28797        -1.40165
H         38.42368        42.61338        -1.89143
O         36.15961        33.61167         2.17737
H         36.45519        32.70336         2.45851
O         38.25807        44.63529        -1.94216
H         37.49228        44.90901        -2.49053
O         32.52802        37.14685         1.96882
H         32.21647        37.98677         2.39020
O         49.51331        40.86049        -1.89478
H         49.15725        40.08084        -2.37468
O         39.98108        40.33384         2.46202
H         40.82359        40.66508         2.86252
O         32.80255        40.83162        -2.24125
H         32.24115        40.01529        -2.09515
O         47.77334        32.95758        -1.70143
H         48.48519        32.36297        -2.04407
O         32.51256        35.94382        -1.48399
H         33.37933        36.28447        -1.82075
O         40.19937        27.35310         2.09997
H         40.34071        26.47147         2.52219
O         38.68266        38.13181         2.26578
H         39.34115        38.74897         2.68348
O         40.18949        28.29199        -1.42121
H         40.12187        29.14650        -1.89761
O         33.94873        43.95603        -1.94309
H         33.20961        43.37341        -2.23560
O         47.98397        31.59996         1.74614
H         47.18933        32.08112         2.08252
O         31.42326        34.66206         1.79847
H         31.61663        35.48691         2.30361
O         30.81873        31.37011        -2.84561
H         31.25128        30.90222        -3.58829
O         37.58729        42.04451         1.91720
H         38.33076        41.57886         2.36545
O         42.52558        33.36787        -1.75827
H         43.13731        32.76811        -2.25153
O         47.94925        28.11935        -1.19523
H         48.68810        27.47607        -1.25834
O         45.79759        44.31440        -1.54616
H         45.29247        44.96035        -2.10273
O         46.20779        44.04063         2.07023
H         47.01214        43.86273         2.62038
O         43.04989        42.02548         2.39623
H         43.84983        41.49981         2.64413
O         35.11611        44.72938         1.37650
H         35.91616        45.15674         1.74822
O         34.71744        28.52517         1.12075
H         35.26734        27.84066         1.55605
O         45.48450        46.53163         1.38327
H         45.90730        45.82447         1.93161
O         44.29630        28.74653        -1.41191
H         43.58945        29.10876        -1.99153
O         45.20374        29.18403         2.07959
H         45.93530        28.74668         2.56579
O         42.81184        28.72305         1.94943
H         41.97020        28.32738         2.28506
O         39.23398        34.01612         2.01450
H         38.38176        34.28132         2.45016
O         36.24585        35.09404        -1.20749
H         37.15043        35.01376        -1.60424
O         41.18349        38.47334        -1.27301
H         41.07590        37.63589        -1.77159
O         41.66069        46.90030        -1.85386
H         41.41060        46.00124        -2.16901
O         47.88360        39.88198         2.06905
H         48.72551        40.26801         2.41070
O         52.17496        35.39686         1.01399
H         52.33134        36.34046         1.22219
O         49.16028        30.67700        -1.59221
H         48.62014        29.88290        -1.82630
O         50.44375        31.84725         1.64910
H         50.23386        31.01373         2.12111
O         39.86114        33.06146        -1.36904
H         40.70867        33.17611        -1.86705
O         38.58830        44.31836         1.65406
H         39.27673        43.92518         2.23992
O         43.00680        46.29257         1.51490
H         42.86271        47.23279         1.77785
O         44.24980        46.41658        -2.00040
H         43.42687        46.79656        -2.40062
O         31.29748        39.44515         2.11632
H         31.31630        40.36362         2.47823
O         41.23868        24.79446         2.19973
H         41.31959        23.86210         2.49041
O         37.63066        35.83525         2.06247
H         38.20271        36.53651         2.46127
O         31.67453        42.38697         2.14344
H         31.15282        43.05509         2.63464
O         48.85626        43.89529         2.63137
H         49.56440        43.35631         3.04817
O         37.84900        37.39821        -1.25897
H         37.74465        38.31941        -1.59976
