         314
 CSIRO Nanostructure Databank - Neutral Graphene Oxide Data Set
C         30.58973        57.14963        -1.59045
C         30.55348        58.56589        -1.62668
C         29.43594        59.29653        -2.05336
C         30.68310        61.40981        -2.15941
C         29.52674        60.68117        -2.33799
C         32.91160        52.88699        -0.56328
C         32.91582        54.27438        -0.77136
C         31.77254        55.02340        -1.12517
C         32.99342        57.19819        -1.09002
C         31.76533        56.44094        -1.26173
C         33.01034        58.57513        -1.08397
C         31.74580        59.31175        -1.18384
C         33.13964        61.50598        -1.43061
C         31.82228        60.84867        -1.44777
C         35.25643        48.59736         0.25516
C         35.20543        49.99409         0.30319
C         34.08203        50.75292        -0.11769
C         35.26027        52.90056         0.23730
C         34.07758        52.16861        -0.14678
C         35.32064        54.32174         0.08949
C         34.21282        54.98022        -0.64558
C         35.33914        57.22943        -0.17131
C         34.25248        56.45510        -0.85034
C         35.53705        58.61786        -0.66233
C         34.28359        59.33543        -1.09143
C         35.53684        61.46681        -0.82208
C         34.30393        60.81955        -1.09103
C         37.69200        44.24498         0.25549
C         37.65383        45.65468         0.44239
C         36.48528        46.41699         0.35529
C         37.62367        48.53064         0.90791
C         36.45087        47.84749         0.54729
C         37.64003        49.97980         1.13365
C         36.36421        50.73760         0.84627
C         37.60092        52.87885         0.98388
C         36.43285        52.20627         0.66799
C         37.57898        54.34092         1.09029
C         36.41695        55.04288         0.54286
C         37.75191        57.24707         0.65254
C         36.46545        56.52075         0.51019
C         37.78091        58.69064         0.42573
C         36.69124        59.37388        -0.15989
C         37.85405        61.49653         0.09148
C         36.69621        60.78792        -0.33093
C         40.23477        39.99681        -0.16327
C         40.19581        41.37296         0.24265
C         38.95390        42.10113         0.19722
C         40.18684        44.21564         0.38405
C         38.88735        43.49194         0.33627
C         40.22043        45.69771         0.47912
C         38.91529        46.34177         0.81923
C         40.14819        48.58767         0.91494
C         38.88414        47.80904         1.10110
C         40.12530        50.04076         1.22120
C         38.93913        50.70952         1.19423
C         40.13301        52.97926         1.34290
C         38.93251        52.18719         0.87928
C         40.15190        54.35273         1.25660
C         38.87769        55.10951         1.25429
C         40.17818        57.24364         1.11085
C         38.91652        56.56084         0.95651
C         40.09088        58.71725         1.46706
C         38.93468        59.42532         0.79359
C         40.12543        61.62268         1.17277
C         38.94920        60.82835         0.64580
C         42.75496        35.99750        -1.55470
C         42.70333        37.33260        -1.08271
C         41.49815        37.99161        -0.85840
C         42.65996        39.83696         0.33916
C         41.42714        39.29232        -0.26791
C         42.63838        41.31919         0.86298
C         41.38952        42.02213         0.61203
C         42.66387        44.20381         1.16102
C         41.38544        43.46691         0.85643
C         42.65041        45.69276         1.02979
C         41.49497        46.39069         0.83587
C         42.72821        48.65202         0.89327
C         41.45102        47.87964         0.75004
C         42.71143        50.09535         1.25045
C         41.41503        50.73765         1.48806
C         42.66621        52.97761         1.32624
C         41.40219        52.27105         1.58266
C         42.60940        54.37984         1.09480
C         41.39656        55.08076         1.16665
C         42.65586        57.23102         1.19417
C         41.37800        56.53350         1.14169
C         42.64420        58.68941         1.41823
C         41.39188        59.45240         1.29440
C         42.63518        61.54857         1.00779
C         41.42100        60.83483         1.15821
C         45.22402        33.26217        -2.18668
C         44.01991        33.96081        -2.15385
C         45.20867        35.92974        -1.25061
C         43.96895        35.30294        -1.69906
C         45.20245        37.22349        -0.79539
C         44.00135        38.11030        -1.01031
C         45.12032        39.93083         0.27233
C         43.96641        39.29917        -0.06874
C         45.15377        41.22973         1.00309
C         43.91121        42.04645         1.01470
C         45.18924        44.14745         1.29590
C         43.96458        43.45273         1.11207
C         45.19660        45.61212         1.54492
C         43.91231        46.39287         1.37508
C         45.18877        48.58187         1.59915
C         43.97573        47.86703         1.09866
C         45.17180        50.07875         1.67056
C         43.89117        50.82044         1.42792
C         45.12875        53.01819         1.22091
C         43.89147        52.26838         1.37439
C         45.12756        54.37484         0.92615
C         43.84020        55.10184         0.61916
C         45.10632        57.26728         0.80909
C         43.85420        56.56412         1.00153
C         45.10387        58.65620         0.70203
C         43.94944        59.44424         1.12779
C         45.06218        61.60667         0.61662
C         43.88789        60.90382         0.87250
C         46.42708        33.85206        -1.77176
C         47.67715        35.82703        -0.97412
C         46.45918        35.17531        -1.29154
C         47.71452        37.15121        -0.50252
C         46.40298        37.77656        -0.07740
C         47.69392        39.99197         0.08896
C         46.40572        39.28872        -0.11039
C         47.71372        41.37303         0.61232
C         46.48120        41.94016         1.22242
C         47.85201        44.18071         1.51150
C         46.44731        43.41553         1.68594
C         47.67578        45.67776         1.29646
C         46.49592        46.34355         1.41036
C         47.68675        48.64416         1.12490
C         46.44522        47.83942         1.25599
C         47.71367        50.12224         1.27038
C         46.47507        50.83487         1.61876
C         47.63992        52.97015         0.80198
C         46.43990        52.34180         1.39226
C         47.58264        54.38554         0.49592
C         46.35230        55.10370         0.69214
C         47.55162        57.22390         0.32139
C         46.33365        56.51776         0.56463
C         47.55887        58.64493         0.19144
C         46.27779        59.35464         0.16751
C         47.60243        61.54004         0.32201
C         46.29549        60.92605         0.21350
C         48.91762        37.85275        -0.31538
C         50.14577        39.97652         0.03444
C         48.96568        39.23444         0.00548
C         50.12445        41.40148         0.13857
C         48.87931        42.07718         0.46899
C         50.08436        44.32269         0.14615
C         48.84228        43.55795         0.51631
C         50.10294        45.76559         0.52485
C         48.97254        46.41418         1.22846
C         50.14923        48.68003         0.73017
C         48.98236        47.92512         1.21084
C         50.12074        50.09449         0.66645
C         48.87144        50.81567         0.94141
C         49.97392        52.83876        -0.02649
C         48.81620        52.23690         0.67389
C         49.91070        54.31495        -0.37511
C         48.73709        55.07612         0.08160
C         49.97288        57.21761        -0.16422
C         48.77345        56.50705         0.07613
C         49.98857        58.63708        -0.05841
C         48.75579        59.36157         0.04458
C         50.04513        61.47286         0.11019
C         48.78547        60.81166         0.12752
C         51.30802        42.14019         0.02989
C         52.67192        44.12709         0.06276
C         51.38336        43.56326         0.01824
C         52.93365        45.51363        -0.20682
C         51.05856        46.57775        -0.00907
C         52.54626        48.59036         0.12373
C         51.27352        47.96378         0.30744
C         52.55360        50.01739         0.19636
C         51.31971        50.75184         0.33790
C         52.47232        52.87935        -0.05460
C         51.30206        52.18081         0.09331
C         52.48160        54.30250        -0.45977
C         51.19692        55.03524        -0.68385
C         52.48664        57.14513        -0.10730
C         51.22222        56.56547        -0.72359
C         52.44539        58.56167         0.20756
C         51.21948        59.33656         0.01290
C         52.51771        61.45200        -0.01794
C         51.26186        60.76364         0.06597
C         53.90563        46.40212         0.20507
C         54.98065        48.60760         0.06000
C         53.79135        47.85765         0.06623
C         54.99855        50.01642         0.06880
C         53.78880        50.72198         0.15037
C         55.04923        52.94026        -0.04694
C         53.76785        52.19928         0.19395
C         54.95985        54.29799        -0.73101
C         53.73860        55.06193        -0.33677
C         55.00071        57.18436        -0.13152
C         53.72550        56.45077        -0.15858
C         55.00844        58.56022        -0.03262
C         53.78417        59.33393         0.24084
C         54.96311        61.45027        -0.34755
C         53.74937        60.78669        -0.05387
C         56.34256        50.72351         0.10644
C         57.40947        52.86076        -0.70459
C         56.30483        52.18761        -0.28599
C         57.44363        54.32314        -0.77877
C         56.24232        55.05644        -0.58702
C         57.47846        57.13511        -0.51514
C         56.24820        56.45177        -0.38439
C         57.55658        58.58270        -0.29522
C         56.26073        59.34084        -0.04401
C         57.40607        61.43697        -0.69846
C         56.21430        60.78484        -0.37399
C         58.64294        55.01909        -0.95958
C         59.84566        57.17744        -1.19200
C         58.66751        56.44061        -0.89911
C         59.85857        58.59955        -1.22921
C         58.70052        59.32441        -0.82889
C         59.80172        61.42620        -1.36615
C         58.64114        60.73864        -0.92774
C         61.00100        59.33196        -1.65569
C         60.96117        60.72339        -1.70534
O         51.90834        46.07065        -0.99573
O         51.87749        54.47169        -1.85481
O         57.15279        59.01079         1.06465
O         35.24676        58.78447        -2.07916
O         53.12872        58.94536         1.46376
O         41.77632        43.77655         2.25033
O         45.90502        41.08963         2.25992
O         31.49564        60.27028        -0.12363
O         47.01650        39.91907        -1.26886
O         46.07249        60.14075        -1.02888
O         43.62428        48.29762        -0.24183
O         48.99703        44.07700        -0.84130
O         40.70018        48.35520        -0.43598
O         38.91310        46.83960         2.20615
O         38.04022        54.83226         2.43004
O         43.52481        59.12454         2.50203
O         41.38630        51.43409         2.78499
O         42.53653        40.14187         1.73829
O         36.71441        50.36976         2.22480
O         49.25835        47.18343         2.44641
O         49.60383        53.29265        -1.37451
O         46.91568        48.24833        -0.08712
O         44.39412        46.05027         2.70854
O         46.64163        51.77459         2.72974
O         48.51237        44.03593         2.74986
O         40.34001        45.04549        -0.82838
O         35.33768        57.14196         1.28037
O         34.69080        55.57198        -1.92644
O         54.53387        52.83280         1.31093
O         45.08753        49.22015         2.88680
O         39.13107        52.17027        -0.60800
H         39.90963        51.60650        -0.81108
O         54.82447        53.99975        -2.16966
H         53.87456        54.07993        -2.41314
O         57.31147        50.01233        -0.66598
H         57.02549        50.01862        -1.60217
O         46.22316        43.45186         3.10188
H         47.13017        43.69072         3.49907
O         40.26439        62.85586         0.46374
H         40.43118        62.65382        -0.47947
O         51.24850        56.96806        -2.12952
H         51.60420        56.19879        -2.63437
O         39.80114        58.73657         2.90950
H         39.01598        58.16836         3.06469
O         44.16957        38.70557        -2.34429
H         44.29485        37.97220        -2.98337
O         43.74556        55.11017        -0.85693
H         43.84955        54.18621        -1.16890
O         46.22687        37.43866         1.33673
H         46.19924        36.46163         1.41339
H         29.67040        56.58949        -1.81899
H         28.50967        58.76131        -2.30689
H         30.77513        62.41569        -2.59424
H         28.66497        61.16554        -2.81970
H         31.98223        52.32191        -0.73270
H         30.81898        54.48886        -1.25710
H         33.18051        62.59369        -1.59654
H         34.37267        48.04595        -0.09948
H         33.18423        50.21748        -0.46186
H         35.57055        62.56528        -0.88231
H         36.74491        43.71348         0.07631
H         35.54466        45.91334         0.08562
H         37.88694        62.59221         0.00047
H         39.30796        39.53783        -0.53801
H         38.02754        41.53122         0.03158
H         39.90286        61.89559         2.24081
H         41.81026        35.46671        -1.74935
H         40.55274        37.48624        -1.11107
H         42.58295        62.64102         0.89000
H         45.23456        32.22450        -2.54894
H         43.09085        33.46959        -2.47682
H         45.04990        62.70701         0.63285
H         47.36293        33.27781        -1.82853
H         48.62396        35.30145        -1.17336
H         47.66391        62.59474         0.62903
H         49.86725        37.32989        -0.51115
H         51.11301        39.47032        -0.10542
H         50.06551        62.57219         0.14755
H         52.24927        41.58276        -0.10050
H         53.51726        43.45083         0.27003
H         52.50233        62.54543        -0.13866
H         54.81132        46.02265         0.70221
H         55.94583        48.07995         0.04338
H         54.93553        62.52993        -0.55884
H         56.70196        50.68473         1.17397
H         58.34932        52.31171        -0.86853
H         57.38310        62.52067        -0.88834
H         59.57504        54.47137        -1.16142
H         60.76062        56.63007        -1.46374
H         59.78106        62.52241        -1.44492
H         61.91110        58.79081        -1.95012
H         61.85050        61.27840        -2.03554
