         272
 CSIRO Nanostructure Databank - Neutral Graphene Oxide Data Set
C        -11.28573         0.66747         0.55138
C        -10.02602         1.35311         0.04834
C         -8.82156         0.68073         0.67007
C         -7.54516         1.42120         0.80275
C         -6.29496         0.72269         0.35875
C         -4.98438         1.41650         0.65132
C         -3.74188         0.67441         0.21306
C         -2.50631         1.42828        -0.20065
C         -1.48168         0.75809        -1.10659
C         -0.20934         1.50684        -1.32811
C          1.08895         0.76126        -1.58062
C          2.39260         1.48878        -1.27326
C          3.70577         0.80196        -1.56758
C          5.02497         1.43893        -1.13003
C          6.35913         0.78900        -1.41336
C          7.62449         1.38020        -0.82878
C          8.97802         1.17525        -1.56096
C         10.10904         1.65957        -0.64061
C         11.21416         0.83647        -0.16959
C         -9.91791         2.87476        -0.00419
C         -8.75772         3.56906         0.13262
C         -7.55632         2.92907         0.74379
C         -6.27048         3.68212         0.94663
C         -4.95246         2.90181         0.91143
C         -3.66690         3.66089         0.61101
C         -2.51074         2.92447        -0.09364
C         -1.43363         3.70314        -0.82128
C         -0.06935         3.00764        -1.10526
C          1.05170         3.43950        -0.18892
C          2.34139         2.64022        -0.29397
C          3.62558         3.25470         0.16149
C          4.95133         2.56737        -0.11669
C          6.21713         3.22777         0.35030
C          7.54732         2.69497        -0.12098
C          8.69383         3.68096        -0.40760
C          9.98934         2.93311        -0.18864
C         -8.59373         4.94071        -0.53080
C         -7.45983         5.82811        -0.01177
C         -6.27799         5.18403         0.73114
C         -4.97173         5.93621         1.06073
C         -3.68570         5.16156         0.69852
C         -2.76748         5.88955        -0.25919
C         -1.43964         5.18126        -0.61185
C         -0.16801         5.76398        -0.01944
C          1.06540         4.89417         0.15027
C          2.40096         5.58054         0.25038
C          3.65764         4.75894         0.35909
C          4.88059         5.37992         0.99657
C          6.18790         4.62741         0.93655
C          7.45505         5.41489         0.96194
C          8.59089         4.94761         0.40668
C         -7.22435         7.11059        -0.68014
C         -6.21650         8.03558        -0.19112
C         -5.01710         7.40469         0.55739
C         -3.72256         8.15839         0.44290
C         -2.54549         7.38139        -0.02184
C         -1.23093         8.07925        -0.06616
C         -0.08112         7.21670         0.33950
C          1.21756         7.86472         0.73576
C          2.44871         7.02522         0.70525
C          3.80615         7.65893         0.40627
C          4.89212         6.88609         1.15858
C          6.17432         7.57985         1.47739
C          7.45697         6.75999         1.68822
C         -5.97381         9.37765        -0.78947
C         -4.89292        10.15033        -0.51746
C         -3.66014         9.63714         0.13397
C         -2.31013        10.26771        -0.10168
C         -1.15662         9.56334         0.04100
C          0.26909        10.08414        -0.14008
C          1.26183         9.39722         0.83354
C          2.69037         9.91093         0.74172
C          3.81823         9.15536         0.70226
C          5.15579         9.74078         0.79986
C          6.25611         9.01750         1.11128
C        -11.33271        -0.67163         0.71392
C        -10.13292        -1.56332         0.62919
C         -8.79615        -0.82509         0.57157
C         -7.68474        -1.51699        -0.19276
C         -6.37898        -0.69882        -0.14033
C         -5.12259        -1.45813        -0.45262
C         -3.82516        -0.76112        -0.17314
C         -2.66365        -1.48469        -0.78725
C         -1.46221        -0.74743        -1.24702
C         -0.16405        -1.51761        -1.44260
C          1.10838        -0.73413        -1.68610
C          2.43787        -1.48334        -1.71371
C          3.68221        -0.65043        -2.12561
C          5.08634        -1.44035        -1.92570
C          6.40704        -0.66010        -1.89072
C          7.76448        -1.35322        -1.93411
C          9.01556        -0.79368        -1.48266
C         10.07031        -1.35464        -0.58129
C         11.16025        -0.50423        -0.04677
C        -10.09027        -2.91755         0.10624
C         -8.91667        -3.78188         0.50667
C         -7.56494        -3.01194         0.18777
C         -6.35452        -3.71641        -0.33172
C         -5.12385        -2.92881        -0.74096
C         -3.80671        -3.69992        -0.75587
C         -2.63172        -2.89363        -0.21255
C         -1.27446        -3.59864        -0.27233
C         -0.09434        -2.94832        -0.98264
C          1.26657        -3.52562        -0.63522
C          2.49515        -2.92042        -1.27805
C          3.80659        -3.67508        -1.16394
C          5.11581        -3.00520        -1.72705
C          6.39506        -3.57592        -0.94994
C          7.35379        -2.71848        -0.15483
C          8.69141        -3.32275         0.18899
C          9.86359        -2.66904         0.07920
C         -8.94774        -5.19958        -0.07734
C         -8.13554        -6.19349         0.27715
C         -6.23117        -5.13633        -0.86566
C         -5.05985        -5.86515        -0.24944
C         -3.75812        -5.17844        -0.54876
C         -2.50639        -5.87390        -0.11522
C         -1.24504        -5.07965        -0.09240
C          0.06773        -5.80547        -0.37188
C          1.28660        -4.90259        -0.05216
C          2.59968        -5.58827         0.30716
C          3.82774        -4.98760        -0.41403
C          5.12854        -5.59946         0.08956
C          6.42771        -4.99570        -0.41350
C          7.56015        -5.58185         0.38720
C          8.66324        -4.67970         0.89156
C         -7.56509        -7.32007         0.67945
C         -6.37110        -8.09893         0.06825
C         -5.06410        -7.29313         0.14324
C         -3.74403        -8.01307         0.04380
C         -2.48547        -7.22377         0.06097
C         -1.17258        -8.01564         0.00787
C          0.04006        -7.14221         0.37654
C          1.34111        -7.79759         0.68685
C          2.56112        -7.10412         0.14168
C          3.83981        -7.85872         0.07032
C          5.13330        -7.11023        -0.10128
C          6.43335        -7.79494         0.16253
C          7.56393        -6.92168         0.59951
C         -6.17111        -9.40415         0.82353
C         -4.97647        -9.97637         1.06037
C         -3.69071        -9.43132         0.54743
C         -2.37954        -9.94897         1.02429
C         -1.20365        -9.31846         0.79990
C          0.10000        -9.94058         1.29797
C          1.39608        -9.27188         0.86021
C          2.59012        -9.91333         0.84655
C          3.89616        -9.13871         0.88829
C          5.18995        -9.89702         0.65838
C          6.35861        -9.25713         0.46088
O          2.84844         2.39773         1.05053
O         -0.97776        -8.35066        -1.35076
O          1.25972        -3.69915         0.81031
O          7.85655         1.44980         0.59670
O         -6.54110        -3.45985         1.10882
O          1.80434         7.28545         1.96165
O         -6.72266        -5.49053        -1.92468
O         -6.43643         0.44174        -1.07455
O         -6.03976         8.10609         1.27524
O          3.65418        -4.98015        -1.84079
O         -3.12606         4.39439         1.76245
O         -1.04405        -4.18817         1.05099
O          0.54611        -7.11054         1.72995
O         -3.63740        -4.57912        -1.88916
O         -1.63829         4.61405        -1.93890
O         -1.94040         7.80379        -1.32663
O          6.87659        -4.70258        -1.74880
O         -2.48429        -1.23967        -2.18902
O          5.38873         4.68778         2.15839
O          2.27273        -2.58620        -2.67274
O          5.14703         7.33332         2.51206
O          1.04919         0.11508        -2.87215
O         -7.13958         3.39547         2.07202
O         -4.85382         1.94239         1.99598
O         -5.11810        -6.23907         1.16329
O          2.97513        -7.74600        -1.09444
O         -9.20947        -1.42102         1.79519
O          0.77133         3.86196         1.15253
O          5.95894        -7.52904        -1.21809
O         -7.37705         5.82171         1.43974
O         -1.21899         1.37330        -2.39533
O          4.02305         7.53132        -0.97059
O         10.13450        -1.46776        -2.05966
O          5.78982         1.74881        -2.34006
O         -5.24318        -1.98545        -1.83021
O         -3.74564        -9.12249        -0.88863
O          5.78460        -1.01635        -3.13778
O          3.26045         5.39125        -0.90961
O          9.04389         1.49805        -2.78430
O         -3.52003        -0.38738         1.19507
O          3.10611         1.76634        -2.49562
O         -1.83139         2.08375         0.90721
O          6.88978        -1.77202         0.49779
O          5.55008         2.22968         1.17033
O         -8.31074         1.02882         1.98186
O         -0.54418         6.24720         1.32330
O         -3.63280         9.13043         1.51862
O         -0.33674        -2.63960        -2.36441
O          0.42474         3.48662        -2.37127
H         -0.13518         3.11203        -3.08688
O         -9.92874         0.98503        -1.36630
H        -10.79226         1.16106        -1.79514
O          0.19004        -6.08317        -1.76608
H         -0.25690        -6.96927        -1.94845
O          0.68579         9.75349        -1.46430
H          0.04585        10.12019        -2.10736
O          7.88339        -2.19533        -2.94842
H          7.00698        -2.26823        -3.42141
O         -8.10249        -1.54173        -1.57597
H         -7.29710        -1.53175        -2.14496
O          0.09525        -9.86177         2.73983
H          0.17397        -8.90992         2.97461
O         -4.94025         6.03723         2.48846
H         -5.76721         6.48757         2.77083
O          5.27095        -5.30148         1.50169
H          4.44156        -5.56712         1.97667
O          5.24609        -3.45797        -3.07251
H          5.00974        -4.41533        -3.09784
O          3.53599        -0.48115        -3.52274
H          3.30392        -1.34681        -3.92258
O         -2.99679        -2.74217         1.17482
H         -2.42601        -3.34730         1.71056
O         -3.62389         5.88537        -1.44095
H         -3.09949         6.27685        -2.17766
O         -6.67178        -8.39396        -1.29928
H         -6.76292        -7.54728        -1.79438
O          8.59314         7.52595         1.29620
H          8.57557         7.64152         0.32368
O         -8.96263        -3.92415         1.93544
H         -8.04004        -4.04320         2.25657
O          0.78072         9.74133         2.14896
H          1.21445         9.13288         2.78887
O          9.93000        -5.32215         0.82149
H         10.08698        -5.59983        -0.10446
O         -8.31551         4.70608        -1.91840
H         -8.99672         4.10550        -2.28530
O          8.56819         4.09076        -1.79139
H          8.78628         3.31981        -2.37598
O          4.00027        -8.63448         2.26637
H          3.94546        -9.40101         2.87536
O          2.73928        -5.44971         1.74247
H          2.24050        -4.64968         2.03000
H         11.99624        -1.03796         0.43054
H         12.07994         1.37365         0.24984
H         10.76864         3.37401         0.45355
H          9.49484         5.57566         0.45768
H          7.56082         6.56161         2.78578
H          7.24110         9.50431         1.16735
H          5.24928        10.82400         0.62453
H          2.80256        10.99366         0.92018
H          0.29983        11.19749         0.01857
H         -2.28293        11.36508        -0.20142
H         -4.83793        11.15176        -0.97269
H         -6.78481         9.79862        -1.40352
H         -7.67037         7.27385        -1.67129
H         -9.56246         5.51052        -0.43680
H        -10.77299         3.38589        -0.48260
H        -12.20317         1.26193         0.68347
H        -12.28579        -1.14446         0.99892
H        -10.88476        -3.29697        -0.55281
H         -9.73939        -5.42070        -0.81758
H         -8.04691        -7.81775         1.54402
H         -7.07892        -9.89803         1.20432
H         -4.93332       -10.91436         1.63617
H         -2.38684       -10.89892         1.58334
H          0.12239       -11.02713         1.03207
H          2.62679       -11.00322         1.00667
H          5.18602       -10.98841         0.80830
H          7.29476        -9.83521         0.40596
H          8.40391        -7.38216         1.14204
H          8.46578        -4.47297         1.98112
H         10.77006        -3.17224         0.45895
