         424
 CSIRO Nanostructure Databank - Neutral Graphene Oxide Data Set
C          1.17606         3.53713         0.72021
C          0.00511         4.25351         0.78274
C          1.19154         6.36708         0.47664
C          0.01287         5.66945         0.67833
C          1.25318         7.89227         0.44137
C         -0.04148         8.56418         0.04188
C          1.16132        10.51549        -0.90913
C         -0.06633         9.76350        -0.55734
C          1.14010        12.01886        -0.91772
C         -0.04288        12.77316        -0.43343
C          1.11673        14.83579        -1.13128
C         -0.01648        14.11334        -0.43476
C          1.17872        16.32324        -0.87749
C         -0.02613        17.05374        -0.74788
C          1.15521        19.18113        -0.59286
C         -0.02550        18.43173        -0.51896
C          1.18488        20.60147        -0.40787
C          0.00615        21.31359        -0.06342
C          1.18305        23.44345        -0.09376
C          0.00196        22.68434         0.09571
C          1.18110        24.89437         0.02998
C         -0.01269        25.61203         0.20319
C          1.17590        27.74413         0.33990
C         -0.01411        26.99829         0.34653
C          1.16841        29.19112         0.49674
C         -0.02967        29.90798         0.64721
C          1.16984        32.01628         0.79609
C         -0.02417        31.29571         0.79818
C          1.10312        33.50500         1.04727
C          0.10001        34.20741         0.14065
C          1.10248        36.34331         0.85124
C          0.08860        35.54277         0.06436
C          1.21627        37.77824         0.40782
C          3.63557         3.49570         0.51686
C          2.42594         4.21079         0.55024
C          3.66767         6.32062         0.25444
C          2.42737         5.64236         0.41056
C          3.69142         7.72925        -0.05584
C          2.38890         8.33912        -0.50130
C          3.64222        10.53165        -0.62972
C          2.46060         9.84017        -0.66039
C          3.70134        11.97398        -1.09423
C          2.43065        12.75263        -0.85609
C          3.67479        14.86822        -0.85367
C          2.43405        14.12078        -0.89666
C          3.65918        16.28745        -0.87561
C          2.40423        16.99541        -0.89588
C          3.67318        19.18443        -0.78428
C          2.38605        18.48729        -1.12318
C          3.66847        20.63023        -0.71478
C          2.40835        21.33904        -0.56333
C          3.59885        23.54018        -0.62599
C          2.37587        22.75034        -0.42329
C          3.63732        24.95256        -0.21659
C          2.41271        25.63075        -0.00019
C          3.65162        27.76617         0.15222
C          2.41707        27.05401         0.17153
C          3.64781        29.20711         0.33358
C          2.40356        29.90515         0.50550
C          3.65009        32.03820         0.71544
C          2.40258        31.32475         0.66356
C          3.65868        33.47288         0.84890
C          2.43984        34.21029         0.92953
C          3.63627        36.34886         0.83043
C          2.43256        35.61378         0.85515
C          3.66420        37.75383         0.59243
C          2.39474        38.43077         0.35869
C          6.10934         3.46682         0.41622
C          4.88074         4.16168         0.41243
C          6.12911         6.29493         0.26930
C          4.89416         5.59944         0.32218
C          6.12088         7.78763         0.46742
C          4.86991         8.44834        -0.05263
C          6.10790        10.56963        -0.32172
C          4.89638         9.85478        -0.34858
C          6.11837        12.01314        -0.41999
C          4.92908        12.72436        -0.64746
C          6.10303        14.89895        -0.50414
C          4.90704        14.16396        -0.67110
C          6.12552        16.31047        -0.65804
C          4.88987        17.01808        -0.81537
C          6.13628        19.19539        -0.83741
C          4.85554        18.46024        -0.76086
C          6.14398        20.64715        -0.54807
C          4.88788        21.32462        -0.63804
C          6.14712        23.49626        -0.30376
C          4.92254        22.78905        -0.69272
C          6.12331        24.90630        -0.15864
C          4.87349        25.63098        -0.13945
C          6.13508        27.73955         0.07711
C          4.88014        27.05367         0.03062
C          6.15050        29.24864        -0.02247
C          4.85241        29.92278         0.36452
C          6.13154        32.04608         0.64430
C          4.86901        31.32911         0.59806
C          6.13128        33.47559         0.74210
C          4.89972        34.16275         0.87283
C          6.20372        36.38905         0.86414
C          4.88891        35.62054         1.05232
C          6.13368        37.80183         0.44870
C          4.87214        38.44679         0.42678
C          8.57188         3.46759         0.32901
C          7.33698         4.15398         0.30852
C          8.59293         6.30344         0.08953
C          7.34315         5.59698         0.22924
C          8.58698         7.74641        -0.03563
C          7.38390         8.46573         0.02005
C          8.59003        10.58327        -0.22006
C          7.36488         9.87049        -0.16981
C          8.57908        12.02425        -0.21216
C          7.36104        12.71232        -0.25894
C          8.62008        14.89219        -0.26430
C          7.32319        14.18943         0.01703
C          8.60509        16.30932        -0.42903
C          7.39682        16.99724        -0.62896
C          8.73313        19.25874        -0.75448
C          7.43257        18.45161        -0.90552
C          8.56049        20.52519         0.12282
C          7.32146        21.32383        -0.24028
C          8.56612        23.46143         0.11389
C          7.33388        22.75652        -0.09637
C          8.57455        24.87172         0.06961
C          7.35772        25.60231         0.00828
C          8.61307        27.76646         0.17064
C          7.34339        27.04294         0.08131
C          8.61500        29.15593         0.38854
C          7.32195        29.84587         0.74837
C          8.58254        32.04269         0.50387
C          7.35285        31.34876         0.59310
C          8.59234        33.46889         0.45538
C          7.37610        34.19211         0.62005
C          8.58177        36.30436         0.19212
C          7.40582        35.61254         0.54835
C          8.55387        37.73862        -0.01116
C          7.31832        38.43629         0.05893
C         11.02246         3.47584         0.28924
C          9.79607         4.15810         0.20510
C         11.05111         6.27598        -0.21764
C          9.79964         5.59541         0.02607
C         11.04952         7.72375        -0.30543
C          9.82374         8.44610        -0.19472
C         11.06650        10.58534        -0.13587
C          9.82685         9.87360        -0.19314
C         11.05978        12.03462        -0.11913
C          9.83754        12.73827        -0.16029
C         11.08088        14.89728        -0.23497
C          9.82784        14.18029        -0.20455
C         11.09702        16.29937        -0.16301
C          9.86040        17.04441        -0.29310
C         11.07710        19.13586         0.32551
C          9.87434        18.42335        -0.23777
C         11.10380        20.62988         0.09752
C          9.84044        21.34302         0.10992
C         11.08285        23.42551         0.63766
C          9.80337        22.71889         0.22347
C         11.09645        24.91515         0.38992
C          9.88156        25.58489        -0.20138
C         11.06071        27.75967         0.15523
C          9.84508        27.06634         0.07415
C         11.05647        29.18867         0.21073
C          9.82601        29.88752         0.36303
C         11.04591        32.03065         0.30723
C          9.82481        31.32482         0.40705
C         11.05155        33.46554         0.17527
C          9.82151        34.17222         0.23644
C         11.01255        36.28272        -0.26640
C          9.80648        35.58880         0.05535
C         10.98478        37.72870        -0.41633
C          9.75661        38.41117        -0.30811
C         13.45674         3.44703         0.28017
C         12.26146         4.14259         0.09467
C         13.50604         6.22345        -0.64319
C         12.24830         5.55071        -0.26454
C         13.52899         7.74608        -0.62903
C         12.26228         8.44816        -0.34980
C         13.56694        10.52494         0.05091
C         12.27284         9.84779        -0.16793
C         13.58011        12.03936        -0.00417
C         12.30039        12.76417        -0.18767
C         13.56200        14.88343        -0.57575
C         12.30522        14.14971        -0.30679
C         13.61107        16.32966        -0.31480
C         12.34435        17.04212        -0.14560
C         13.61057        19.16074        -0.36037
C         12.33954        18.41674        -0.04300
C         13.58363        20.63237        -0.01391
C         12.31114        21.30594         0.01259
C         13.58388        23.45975         0.33218
C         12.29036        22.81461        -0.09811
C         13.54910        24.87434         0.87239
C         12.27387        25.59675         0.49693
C         13.52696        27.70526         0.29077
C         12.32021        27.03246         0.28091
C         13.53850        29.13846        -0.17037
C         12.28107        29.91829         0.15357
C         13.55777        32.09692         0.42170
C         12.27903        31.30770         0.23698
C         13.51525        33.50278        -0.11397
C         12.26233        34.18013        -0.12028
C         13.44673        36.26920        -0.91972
C         12.21617        35.57351        -0.39023
C         13.44081        37.76069        -0.65688
C         12.20389        38.42894        -0.56673
C         15.96710         3.49854         0.59158
C         14.76319         4.03269        -0.02445
C         16.05739         6.24560        -0.30458
C         14.81412         5.49057        -0.50859
C         16.08258         7.69453        -0.78612
C         14.81558         8.44925        -0.45668
C         16.07751        10.54580        -0.14893
C         14.84150         9.80956        -0.20116
C         16.07475        11.98044        -0.13221
C         14.86840        12.69274        -0.24087
C         16.11965        14.87467        -0.27098
C         14.88667        14.12567        -0.54346
C         16.08462        16.27995        -0.17124
C         14.81990        16.98082        -0.17407
C         16.08519        19.17545         0.05063
C         14.79383        18.43268         0.26029
C         16.05879        20.58787         0.11310
C         14.78827        21.31542         0.11339
C         16.02255        23.48295         0.53746
C         14.77890        22.76949         0.31866
C         16.05944        24.89728         0.56612
C         14.82193        25.63497         0.56573
C         16.04761        27.75876         0.27216
C         14.79867        27.01551         0.38796
C         16.06043        29.16256         0.14471
C         14.76222        29.89141         0.34098
C         16.05109        32.08033         0.02894
C         14.75390        31.33878        -0.17842
C         15.99273        33.47005        -0.17272
C         14.74547        34.16923        -0.30527
C         15.93371        36.32522        -0.55006
C         14.74902        35.59344        -0.55671
C         15.90779        37.78054        -0.61450
C         14.64968        38.45478        -0.63602
C         18.36970         3.55939         1.01118
C         17.16107         4.18672         0.53355
C         18.49252         6.25029         0.11238
C         17.21649         5.57136         0.07055
C         18.57481         7.65929        -0.31860
C         17.32649         8.44327        -0.37850
C         18.57579        10.56351        -0.02417
C         17.32683         9.82313        -0.20122
C         18.55760        11.99691         0.02571
C         17.32691        12.71319        -0.09687
C         18.55546        14.86877         0.05169
C         17.32882        14.13886        -0.09066
C         18.54195        16.30334         0.05668
C         17.30731        17.01399        -0.00284
C         18.54182        19.16986         0.10571
C         17.30235        18.45318         0.06309
C         18.52864        20.59879         0.19922
C         17.28387        21.28621         0.26635
C         18.60565        23.48811         0.53070
C         17.26079        22.70984         0.62755
C         18.54770        24.94144         0.35077
C         17.30491        25.62460         0.46163
C         18.50155        27.80447         0.32610
C         17.28737        27.05448         0.33516
C         18.49315        29.19958         0.29918
C         17.26549        29.91362         0.17118
C         18.52168        32.09063         0.05878
C         17.26399        31.35873         0.07679
C         18.51671        33.50245        -0.11757
C         17.25128        34.17216        -0.59284
C         18.38120        36.38392        -0.35361
C         17.21274        35.66569        -0.40789
C         18.36529        37.82336        -0.54959
C         17.10747        38.49010        -0.62428
C         19.55436         4.22879         1.02008
C         20.86179         6.32469         0.81371
C         19.63132         5.60027         0.58748
C         20.96230         7.66084         0.60638
C         19.87736         8.40945        -0.04651
C         20.99877        10.61542         0.27487
C         19.80630         9.88578         0.08286
C         20.98987        11.99577         0.31302
C         19.78265        12.71906         0.17334
C         20.98690        14.90662         0.27368
C         19.78118        14.16276         0.17306
C         20.98357        16.28423         0.23807
C         19.77655        17.02022         0.12884
C         20.98809        19.20073         0.08461
C         19.77761        18.45975         0.10203
C         20.98161        20.58006         0.07305
C         19.77416        21.31686         0.14469
C         20.91070        23.49433        -0.30781
C         19.79460        22.75200         0.09827
C         20.91318        24.89372        -0.24015
C         19.75760        25.62414         0.06956
C         20.87212        27.88561        -0.38326
C         19.84336        27.09802         0.39790
C         20.86550        29.22218        -0.32647
C         19.81015        29.92978         0.50653
C         20.93135        32.16152         0.34157
C         19.74890        31.41805         0.25187
C         20.90865        33.55242         0.24988
C         19.70840        34.23528        -0.00896
C         20.85216        36.41859        -0.68787
C         19.70171        35.75061         0.02410
C         20.78393        37.75115        -0.96258
C         19.56932        38.48875        -0.79418
O         14.93142         4.38669        -1.45995
O          1.01744        11.25913        -2.18961
O         19.54232         7.92961        -1.39142
O          5.66685        36.11357         2.20031
O          4.27588        23.31832        -1.90870
O         13.58450        11.30088         1.29597
O          6.76866        18.84266        -2.15878
O         14.21810        14.46870        -1.82294
O         18.06223        23.02584         1.81338
O         13.44251         6.97830        -1.90519
O          2.05099         7.78449        -1.80395
H          2.73184         8.07702        -2.44500
O          7.07536        29.56875         2.15827
H          7.80520        29.96473         2.67860
O         20.28733        27.10952         1.80633
H         19.65487        26.56017         2.31730
O          7.17561        14.28150         1.50316
H          7.91470        13.76813         1.89586
O         20.17082        29.81185         1.91004
H         20.32609        28.85001         2.09740
O         17.26041        34.00623        -2.06936
H         16.90669        33.11144        -2.26740
O          0.84697        14.72266        -2.56786
H          0.86905        13.76833        -2.79843
O          2.27884        18.62644        -2.60106
H          1.53541        18.05327        -2.88943
O         10.08463        25.44891        -1.65974
H         10.56322        24.59954        -1.81422
O         10.93018        19.01445         1.80762
H         11.15974        18.09158         2.05163
O         19.88811        36.08118         1.45092
H         19.90009        37.05998         1.51853
O          3.79179        11.87791        -2.56610
H          2.90670        11.56103        -2.87056
O         13.78732        19.09685        -1.80797
H         12.93579        19.33422        -2.23160
O          8.34414        20.08900         1.49395
H          9.21884        19.80449         1.86339
O          0.61892        36.39125         2.24251
H          1.29331        36.87299         2.76753
O          9.15449        19.70044        -2.07024
H          8.36485        19.60975        -2.65913
O          6.37607        29.56810        -1.42840
H          5.67400        29.13166        -1.95484
O          1.61171         8.34461         1.77443
H          0.93299         8.01620         2.39994
O         14.62141        31.39985        -1.62180
H         14.13593        30.60327        -1.94863
O         11.21021        23.18748         2.05727
H         11.96958        23.73010         2.39204
O         14.56820        18.42163         1.70426
H         15.37729        18.07192         2.13304
O         14.60313        29.88922         1.79788
H         15.47546        30.09366         2.19769
O         12.08183        23.16027        -1.51331
H         12.82672        22.78244        -2.02763
O          0.62805        33.64885         2.41533
H          0.50703        34.61953         2.57991
O         13.71343        32.29824         1.85525
H         13.71545        31.40287         2.27276
O         13.59946        29.01168        -1.63313
H         12.77527        28.56476        -1.92315
O         13.34684        36.13578        -2.38881
H         14.17658        36.49652        -2.76870
O         13.51351        24.72399         2.34914
H         14.34272        24.26916         2.61389
O          6.08940         7.98521         1.93498
H          5.23522         7.62255         2.25450
O         16.12851         7.59788        -2.25070
H         15.25914         7.22008        -2.53432
H          1.16789         2.44171         0.81427
H         -0.95400         3.73578         0.92363
H         -0.94796         6.19703         0.75710
H         -0.99756         8.07183         0.27534
H         -1.02838        10.21545        -0.84171
H         -0.89447        12.22379        -0.00523
H         -0.86610        14.67883        -0.02514
H         -0.98859        16.52554        -0.76348
H         -0.98395        18.91596        -0.28755
H         -0.93660        20.77106         0.08470
H         -0.93938        23.17946         0.36714
H         -0.97803        25.08943         0.21851
H         -0.98172        27.50114         0.47240
H         -0.99535        29.38602         0.65677
H         -0.97650        31.82485         0.94114
H         -0.64072        33.60749        -0.41032
H         -0.65179        36.07630        -0.55108
H          0.27732        38.32003         0.21762
H          3.61646         2.39829         0.59295
H          2.42568        39.49847         0.09242
H          6.11093         2.37035         0.50526
H          4.83469        39.51598         0.16787
H          8.58093         2.37354         0.44316
H          7.29583        39.50466        -0.20435
H         11.02733         2.39455         0.48985
H          9.73963        39.50412        -0.43537
H         13.42255         2.41296         0.65359
H         12.19254        39.52962        -0.53462
H         15.91501         2.52818         1.10754
H         14.63996        39.55409        -0.57248
H         18.31384         2.51463         1.34946
H         17.08855        39.58596        -0.72405
H         20.47094         3.73964         1.38031
H         21.69706         5.77874         1.27716
H         21.86189         8.19591         0.94185
H         21.95768        10.08649         0.35411
H         21.94467        12.52167         0.43711
H         21.95104        14.39117         0.36755
H         21.94484        16.80912         0.30982
H         21.95491        18.68200         0.06191
H         21.94125        21.11368         0.04728
H         21.82689        22.98228        -0.63163
H         21.85073        25.42458        -0.45394
H         21.63153        27.35335        -0.97470
H         21.61943        29.81306        -0.86892
H         21.88113        31.64476         0.53847
H         21.84067        34.11795         0.38805
H         21.79143        35.86848        -0.84315
H         21.66255        38.27703        -1.36501
H         19.56126        39.56806        -1.00291
