         260
 CSIRO Nanostructure Databank - Neutral Graphene Oxide Data Set
C         30.32637        31.77850        -0.52647
C         30.13720        33.00713        -0.54772
C         30.95834        35.86055        -1.69132
C         31.03555        37.04351        -2.04720
C         30.72711        40.03826        -1.60074
C         30.70594        41.32429        -1.59446
C         32.86061        29.06272        -0.74689
C         31.68078        29.50882        -0.56499
C         32.73920        31.64101         0.10067
C         31.58925        31.01681        -0.78725
C         32.71860        32.87153         0.70849
C         30.93095        34.06533         0.00937
C         32.91913        35.72187        -0.28499
C         31.52605        35.12141        -0.60974
C         33.11367        37.19672        -0.72215
C         32.19456        37.89917        -1.73276
C         33.14351        40.19221        -1.04953
C         32.05438        39.39058        -1.72765
C         32.77968        41.50127        -0.32206
C         31.56757        42.25383        -1.05229
C         32.77172        44.38299        -0.77442
C         31.78758        43.63504        -1.00348
C         35.71172        27.85787        -1.57144
C         35.48971        29.25264        -1.01439
C         34.12341        29.61426        -0.53801
C         35.13541        31.41886         0.76606
C         34.02758        30.91850         0.10313
C         35.11811        32.74823         1.38148
C         33.91749        33.63969         1.16804
C         35.14147        36.04454         1.06440
C         34.01043        35.10149         0.62492
C         35.18449        37.36575         0.71237
C         33.96250        38.09075         0.18411
C         35.35893        40.25465         0.21825
C         34.37012        39.40045        -0.56299
C         35.35150        41.71158        -0.07873
C         34.01375        42.39394        -0.07124
C         35.28622        44.66361        -0.09231
C         34.00753        43.91670        -0.12368
C         35.42559        46.05417        -0.22424
C         38.05947        27.59727        -0.89853
C         36.89920        27.42453        -1.66162
C         37.77428        28.60343         0.17774
C         36.47849        29.35629         0.18276
C         37.71874        31.46908         0.88656
C         36.41826        30.64204         1.02253
C         37.66178        32.87296         1.29618
C         36.43342        33.30769         1.69500
C         37.62513        36.01148         1.45286
C         36.36943        35.52207         1.69007
C         37.66780        37.49479         1.35860
C         36.32228        38.21991         1.27632
C         37.73647        40.33657         0.84240
C         36.47414        39.62203         0.69991
C         37.70486        41.81589         0.86705
C         36.56045        42.53632         0.23022
C         37.71931        44.76418         0.45145
C         36.51196        44.03116         0.26359
C         37.76543        46.18082         0.31923
C         36.51310        46.67386        -0.04620
C         40.73291        25.06614        -1.52762
C         39.62065        25.66926        -1.65110
C         40.28777        27.10810         0.31696
C         39.18256        26.68125        -0.68423
C         40.25475        28.55890         0.78512
C         38.95911        29.31153         0.78365
C         40.18567        31.60086         0.77559
C         38.91686        30.81599         0.78416
C         40.18181        33.03720         1.16090
C         38.91560        33.62472         1.78856
C         40.18060        35.94608         1.50132
C         38.87902        35.21472         1.73780
C         40.18373        37.34946         0.85664
C         38.95975        38.20727         1.18921
C         40.21099        40.40628         0.83352
C         38.95557        39.68301         0.93496
C         40.24190        41.78928         0.83862
C         39.00498        42.57494         1.02302
C         40.29504        44.82065         0.60933
C         38.99650        44.07778         0.82671
C         40.28865        46.22606         0.13478
C         39.00750        46.99953         0.58252
C         40.09235        48.79301        -0.69531
C         39.06467        48.29067        -0.20418
C         43.19852        24.72833        -0.63763
C         41.93336        25.14135        -0.89756
C         42.85584        27.09976         0.81133
C         41.57626        26.32655         0.57009
C         42.83346        28.58812         0.59439
C         41.52862        29.32811         0.58050
C         42.74352        31.52653         1.17715
C         41.49239        30.83799         0.70803
C         42.71007        33.03419         1.19383
C         41.39496        33.76664         1.10633
C         42.71190        35.89129         1.27571
C         41.41973        35.16736         1.21059
C         42.72894        37.42491         1.36195
C         41.41587        38.23712         1.25878
C         42.77019        40.28028         0.41958
C         41.41725        39.55329         0.40864
C         42.73752        41.76751         0.23483
C         41.46601        42.52391         0.42298
C         42.78779        44.67013        -0.08546
C         41.56866        44.02716         0.51535
C         42.61474        45.98470        -0.79031
C         41.38742        46.80554        -0.49427
C         42.57440        48.62134        -1.51739
C         41.35571        48.20417        -0.94768
C         44.13004        25.00866         0.19559
C         45.51169        27.17056         0.57355
C         44.20759        26.39957         0.71975
C         45.31679        28.68965         0.75766
C         44.11121        29.33028         0.78863
C         45.31644        31.62945         0.75071
C         44.06429        30.79351         1.06250
C         45.13787        33.06838         0.51144
C         43.97368        33.77224         0.88023
C         45.26896        35.89699         0.96125
C         43.96207        35.18554         0.93522
C         45.32699        37.39865         1.02460
C         44.05267        38.16556         1.21499
C         45.38975        40.35905         0.95097
C         44.06243        39.59341         0.72463
C         45.31888        41.83356         0.54485
C         44.02330        42.54067         0.28588
C         45.25136        44.51020        -0.71975
C         43.97607        43.84575        -0.40820
C         45.20761        45.92374        -1.29762
C         43.87890        46.59968        -1.44448
C         43.69673        48.05262        -1.51248
C         46.79350        27.58148        -1.70193
C         46.14641        27.13593        -0.76645
C         47.24975        28.88706        -2.22258
C         46.58388        29.46291         0.58901
C         47.46048        31.55517        -0.51621
C         46.46031        30.89063         0.14735
C         47.56225        33.00718        -0.16858
C         46.27223        33.80935        -0.16121
C         47.75765        35.88503         0.17422
C         46.48568        35.16707         0.47868
C         47.76526        37.36584         0.12308
C         46.46237        38.10296         0.30139
C         47.81173        40.30487        -0.14005
C         46.47794        39.59737         0.18655
C         47.76337        41.81837         0.03996
C         46.59143        42.49436         0.13370
C         47.79002        44.79026        -0.00631
C         46.50751        43.98263        -0.02655
C         47.54433        46.07077        -0.68872
C         46.46027        46.61710        -0.94983
C         49.77976        29.00294        -1.74438
C         48.50721        29.43594        -1.62697
C         49.93233        31.63726        -1.31300
C         48.57415        30.92658        -1.28575
C         50.06436        33.08479        -0.83092
C         48.88206        33.70631        -0.14685
C         50.23914        35.82912         0.28768
C         48.91720        35.19221        -0.00382
C         50.28716        37.34319         0.60453
C         49.04970        38.13103         0.28091
C         50.30274        40.37601         0.60781
C         48.95899        39.60704         0.69223
C         50.30729        41.80700         0.12022
C         49.04210        42.51718        -0.37990
C         50.34743        44.44652        -0.08382
C         49.06421        44.05090        -0.01977
C         50.99765        29.45211        -1.67223
C         52.34015        31.65590        -1.35165
C         51.21191        30.79472        -1.49484
C         52.47299        32.83632        -0.99072
C         51.39977        33.82654        -0.78438
C         52.61193        35.89684         0.14281
C         51.50310        35.11574        -0.06815
C         52.57366        37.14848         0.47047
C         51.58605        38.08153         0.53589
C         52.68559        40.34120         0.05490
C         51.66922        39.55408         0.85198
C         52.69193        41.56367        -0.15928
C         51.64247        42.52430        -0.22420
C         51.52039        43.88354        -0.22897
O         48.37648        33.05548         1.06105
O         36.31012        34.41241         2.51697
O         33.79200        43.19868         1.13607
O         39.67090        35.77528         2.85404
O         33.02901        40.17567        -2.49383
O         47.68957        28.97313         0.76474
O         39.17405        26.28423         0.74786
O         50.19802        36.36675         1.66685
O         46.54929        29.56566        -2.94562
O         46.00390        38.78300        -0.91851
O         39.53529        28.76176         2.02633
O         36.28685        42.07781        -1.15105
O         36.62975        28.19960         1.03517
O         50.52607        33.92874        -1.94025
O         40.94554        31.42774        -0.50796
O         49.16015        42.46840        -1.84403
O         43.59527        26.63811         1.99630
O         42.17205        28.91993        -0.67724
O         33.43857        37.32904        -2.14178
O         34.02060        34.93725        -0.84022
O         48.54398        37.81921        -1.04148
O         39.69035        44.70677         1.94680
O         46.20808        35.23401         1.90152
O         43.61823        39.70841        -0.64880
O         44.99315        31.17720         2.10705
O         49.03096        31.66896        -2.46521
O         45.43558        44.80329        -2.17371
O         34.19911        33.16039         2.50320
O         46.94343        44.68173         1.18223
O         38.42911        37.98484         2.54186
O         38.15080        42.28380         2.17483
O         42.91050        45.86595        -2.21739
O         44.64546        42.57961         1.63327
O         42.74765        36.64466         2.56711
O         50.25676        41.49913         1.55325
O         41.91604        42.09390        -0.93580
O         42.56116        44.63448         1.39347
O         42.66947        32.23947         2.43939
O         44.96278        37.94107         2.32041
O         31.58755        33.57429         1.15003
O         32.29353        41.09787         0.95255
H         32.34345        41.87442         1.55609
O         41.18127        38.72670         2.58789
H         41.22892        37.96804         3.21312
O         35.88730        38.47792         2.64664
H         36.70758        38.58722         3.18770
O         47.97545        43.12030        -2.38247
H         47.77353        42.55686        -3.16882
O         40.17128        36.99057        -0.53323
H         40.32450        37.79138        -1.09202
O         35.16624        39.03399        -1.70274
H         34.67495        39.29767        -2.51901
O         45.91792        34.07829        -1.54507
H         45.90311        33.23582        -2.04712
O         46.41711        26.66924         1.54556
H         45.95337        26.61686         2.40726
O         51.96314        39.64977         2.22480
H         51.82440        40.58346         2.50159
O         35.92179        30.24478        -1.95046
H         35.26018        30.31512        -2.67033
O         39.04621        33.26918         3.18266
H         39.55645        33.98847         3.62470
O         45.76727        40.34330         2.32708
H         45.33748        41.10797         2.77287
O         36.36268        30.28825         2.41737
H         36.53287        29.31610         2.48590
O         41.17400        39.28760        -0.99265
H         41.45258        40.08946        -1.49510
O         31.96255        31.27973        -2.12841
H         31.24243        30.98990        -2.72592
O         41.39361        25.40028         1.56031
H         40.43753        25.15973         1.59660
O         39.07399        47.26605         1.96720
H         39.93897        47.66877         2.18595
O         48.56381        39.58292         2.06514
H         48.82733        40.43527         2.48007
O         33.15351        38.41986         1.32844
H         33.74664        38.70989         2.05796
O         48.07908        40.17653        -1.54049
H         47.50613        39.45000        -1.88930
