         671
 CSIRO Nanostructure Databank - Neutral Graphene Oxide Data Set
C          5.82832        31.70592         1.21458
C          6.02524        33.04457         1.17705
C          8.51327        27.52991         0.35187
C          8.49829        28.92215         0.51210
C          7.17941        29.58279         0.53905
C          8.83164        31.82888         1.11431
C          6.93739        30.74325         1.20483
C          8.61293        33.14400         0.76160
C          7.24575        33.79623         0.66781
C          8.48842        35.94970         0.69024
C          7.36398        35.24229         1.07339
C          8.66101        37.35237         1.04304
C         11.00763        23.18272         0.72731
C         10.94683        24.68856         0.81233
C          9.68594        25.28195         0.15021
C         10.92098        27.47580         0.04794
C          9.70953        26.79603         0.21449
C         10.94190        28.90871         0.06951
C          9.75848        29.62643         0.44099
C         10.98177        31.75477        -0.00996
C          9.87966        31.05023         0.54431
C         10.93444        33.17459        -0.14298
C          9.71579        33.86293         0.19384
C         10.74489        36.00654        -0.46473
C          9.62107        35.26025         0.10137
C         10.78817        37.51660        -0.20838
C          9.76738        38.06595         0.69954
C         11.01061        40.28637         0.54835
C         10.07937        39.38741         1.35735
C         10.85130        41.63857         0.83088
C         13.38209        18.87168         0.50812
C         13.37132        20.29153         0.39692
C         12.19070        21.02602         0.56867
C         13.42691        23.14724         0.25024
C         12.17496        22.46008         0.54077
C         13.48644        24.62859         0.54769
C         12.19641        25.36288         0.30682
C         13.38017        27.44858        -0.23182
C         12.18642        26.73284        -0.00615
C         13.29798        28.83094        -0.82601
C         12.12587        29.61876        -0.29489
C         13.28449        31.74759        -0.91693
C         12.13959        31.01963        -0.41165
C         13.22712        33.14494        -1.05675
C         12.06176        33.88749        -0.65975
C         13.15503        36.10345        -1.05660
C         12.01367        35.31785        -0.75904
C         13.19782        37.51769        -0.89123
C         12.06213        38.24483        -0.38660
C         13.21872        40.34519        -0.93195
C         12.07106        39.64192        -0.18938
C         13.35077        41.81086        -0.67933
C         11.64005        42.71566         0.30772
C         13.24802        44.58290         0.58320
C         12.04873        43.84711         0.96631
C         13.31200        45.93258         0.89883
C         15.86149        14.55081         0.50932
C         15.85274        15.99155         0.34535
C         14.63072        16.72584         0.49402
C         15.84111        18.87890         0.30289
C         14.57704        18.12785         0.44506
C         15.80754        20.30950        -0.04438
C         14.60325        20.99920         0.06103
C         15.76477        23.12558        -0.67836
C         14.55961        22.44068        -0.07044
C         15.80300        24.61199        -0.38823
C         14.70819        25.31619        -0.00070
C         15.92946        27.56795        -0.32680
C         14.67856        26.80424         0.00294
C         15.84558        28.93662        -0.90836
C         14.57816        29.63942        -0.88416
C         15.68967        31.70445        -1.70976
C         14.50347        30.99890        -1.17128
C         15.68688        33.20582        -1.85580
C         14.36221        33.90643        -1.64660
C         15.71225        36.11936        -1.48611
C         14.36473        35.40742        -1.55057
C         15.71548        37.51899        -1.02519
C         14.48320        38.20826        -0.93518
C         15.72293        40.28102        -0.49672
C         14.51438        39.60758        -0.72530
C         15.71791        41.72003        -0.13530
C         14.45103        42.48845        -0.25017
C         15.65162        44.63508         0.03646
C         14.44555        43.91928         0.08226
C         15.71807        46.03523         0.32545
C         14.49986        46.70255         0.73566
C         15.70539        48.82749         0.97558
C         14.49189        48.07561         0.97505
C         15.69567        50.17988         1.26757
C         18.21367        10.20873         0.72504
C         18.15510        11.63018         0.42258
C         17.01691        12.37132         0.54973
C         18.28163        14.46606         0.05748
C         17.01372        13.81015         0.37039
C         18.37639        15.96422         0.17000
C         17.04224        16.64042         0.00404
C         18.17935        18.77607        -0.76023
C         17.09060        18.10519         0.00673
C         18.18740        20.25630        -0.75304
C         17.06278        20.95907        -0.39430
C         18.29099        23.09336        -0.92182
C         17.09304        22.46553        -0.25359
C         18.20028        24.54069        -1.31720
C         17.11607        25.27305        -0.55634
C         18.32161        27.38903        -1.22352
C         17.18487        26.77946        -0.53946
C         18.23262        28.79060        -1.71735
C         17.00543        29.55569        -1.30082
C         18.28547        31.71249        -1.73606
C         16.98498        30.95242        -1.77719
C         18.24255        33.21293        -1.62213
C         16.95910        33.96522        -1.66621
C         18.18394        36.04758        -1.05722
C         16.96286        35.32568        -1.41631
C         18.17712        37.42263        -0.83326
C         16.94564        38.18796        -0.82671
C         18.22573        40.32865        -0.55622
C         16.96073        39.59190        -0.56158
C         18.25450        41.77528        -0.58705
C         17.00087        42.48567        -0.24195
C         18.14943        44.73384        -0.67904
C         16.89378        43.96245        -0.43972
C         18.17640        46.24871        -0.44133
C         16.92331        46.77421         0.25213
C         18.18318        48.81810         0.81147
C         16.94542        48.12941         0.66264
C         18.21091        50.16787         1.25970
C         16.94632        50.94343         1.56446
C         18.19829        53.01559         1.02246
C         17.01971        52.32689         0.94493
C         18.32015        54.42084         0.71540
C         20.86128         6.19367         1.87831
C         20.76317         7.55227         1.72338
C         19.38533         8.16181         1.54578
C         20.60206        10.41697         1.29141
C         19.37960         9.59846         1.07589
C         20.60402        11.84062         0.83331
C         19.43818        12.24250        -0.08618
C         20.66843        14.41553        -0.58860
C         19.40478        13.74713        -0.19534
C         20.66915        15.87537        -0.85664
C         19.53667        16.57958        -0.61090
C         20.71167        18.75846        -1.20351
C         19.44587        18.00605        -1.02026
C         20.68755        20.11888        -1.26008
C         19.38812        20.90027        -1.41635
C         20.66614        23.10998        -1.46495
C         19.45607        22.39899        -1.17433
C         20.71935        24.53029        -1.45109
C         19.52516        25.25909        -1.29763
C         20.74453        27.39884        -1.66681
C         19.51112        26.67842        -1.40969
C         20.70085        28.84988        -1.61399
C         19.52390        29.52214        -1.47943
C         20.73985        31.69615        -1.13943
C         19.42927        30.96116        -1.03601
C         20.65462        33.13197        -0.63010
C         19.42652        33.90800        -1.08145
C         20.68364        35.95901        -0.62455
C         19.39834        35.26144        -0.87666
C         20.70098        37.42691        -0.42689
C         19.37236        38.15760        -0.23292
C         20.68156        40.33213        -0.63147
C         19.42407        39.62615        -0.61310
C         20.70702        41.78645        -0.65394
C         19.44621        42.48274        -0.70249
C         20.67495        44.56736        -0.16256
C         19.47555        43.99512        -0.94192
C         20.68971        46.07032         0.05913
C         19.45374        46.77921         0.18459
C         20.63885        48.77257         1.04068
C         19.43247        48.11914         0.64228
C         20.67310        50.13117         1.41673
C         19.41560        50.82780         1.49038
C         20.66255        53.02527         1.80561
C         19.37250        52.30283         1.62118
C         20.75911        54.34150         1.09845
C         19.51917        55.11049         0.81294
C         20.88719        57.16632         0.48261
C         19.66728        56.48233         0.43343
C         21.01329        58.47517        -0.12204
C         23.43553         3.54664         2.64168
C         22.20051         4.15332         2.34134
C         23.29825         6.33415         2.24751
C         22.11683         5.53908         2.14915
C         23.23139         7.73583         2.02533
C         21.95386         8.37829         1.77200
C         23.11432        10.51506         1.36849
C         21.89514         9.75271         1.54668
C         23.13979        11.75672         0.76225
C         21.92007        12.63491         0.79215
C         23.21532        14.57702        -0.25141
C         21.96403        13.76707        -0.21502
C         23.20539        15.86013        -0.70697
C         21.96638        16.43473        -1.43688
C         23.24203        18.72729        -1.17756
C         21.98108        18.01434        -1.65443
C         23.23339        20.14497        -1.21130
C         21.95454        20.84790        -1.53376
C         23.15107        23.10337        -1.25430
C         21.92012        22.34529        -1.62937
C         23.17425        24.55549        -1.54513
C         21.98612        25.25878        -1.59310
C         23.20183        27.47121        -1.54640
C         21.96384        26.71773        -1.67776
C         23.20973        28.85098        -1.44492
C         21.96979        29.61747        -1.86385
C         23.21221        31.79182        -1.49834
C         21.90357        31.04535        -1.36939
C         23.17983        33.11919        -0.72259
C         21.92436        33.90425        -0.93762
C         23.18741        36.01147        -1.38160
C         21.92704        35.24974        -1.02477
C         23.19594        37.45777        -0.94867
C         21.87047        38.18290        -1.04069
C         23.14139        40.30155        -0.32772
C         21.88062        39.62185        -0.62577
C         23.16804        41.77145        -0.38859
C         21.94807        42.46710        -0.57738
C         23.22617        44.58062        -0.03617
C         22.00978        43.97624        -0.70785
C         23.22663        46.08038         0.04831
C         21.88516        46.65118         0.46543
C         23.16375        48.67615         1.44109
C         21.86194        47.97166         1.10479
C         23.14791        50.13725         1.60735
C         21.93233        50.80759         1.66140
C         23.22927        52.98166         1.86188
C         21.93976        52.24350         2.16369
C         23.25656        54.35908         1.66891
C         22.07967        55.04721         1.09485
C         23.21463        57.17193         1.46014
C         22.06183        56.51575         1.03330
C         23.51608        58.30373        -0.64315
C         22.20907        59.04676        -0.53716
C         23.55701        61.04777        -0.95511
C         22.31538        60.42313        -0.91080
C         24.58818         4.30224         2.76154
C         25.70708         6.51144         2.71424
C         24.55378         5.71647         2.56922
C         25.65707         7.91272         2.50684
C         24.40865         8.50982         2.11245
C         25.47263        10.71967         2.03121
C         24.37190         9.90849         1.80790
C         25.34887        12.21555         1.71433
C         24.50884        12.34090         0.42090
C         25.69996        14.64413         0.13641
C         24.52305        13.77122        -0.26682
C         25.70897        15.95555        -0.24081
C         24.53502        16.53851        -1.02417
C         25.64187        18.78814        -0.73038
C         24.44690        18.05110        -0.93234
C         25.65150        20.20919        -0.81764
C         24.42962        20.87479        -1.04501
C         25.69429        23.11321        -1.04584
C         24.41672        22.35947        -0.99225
C         25.69475        24.47518        -1.14075
C         24.48490        25.22818        -1.54751
C         25.65673        27.38359        -0.81635
C         24.48811        26.72637        -1.51416
C         25.69196        28.87069        -1.02214
C         24.42004        29.59941        -1.13162
C         25.63104        31.70962        -0.52092
C         24.41664        30.97223        -1.06574
C         25.72002        33.12555        -1.13551
C         24.45006        33.91192        -0.93010
C         25.68467        36.02883        -0.89559
C         24.44993        35.27343        -0.98246
C         25.66622        37.40209        -0.91269
C         24.39430        38.11183        -0.84000
C         25.70136        40.29882        -0.56555
C         24.44090        39.53604        -0.41390
C         25.65948        41.72858        -0.27747
C         24.40514        42.43012        -0.19629
C         25.65812        44.52461         0.36815
C         24.40648        43.86367         0.04274
C         25.65514        45.92417         0.71225
C         24.43872        46.65125         0.74887
C         25.64975        48.65512         1.48604
C         24.44018        47.98630         1.16648
C         25.63893        50.08707         1.74459
C         24.42811        50.81207         1.76334
C         25.69930        52.91984         1.94822
C         24.46319        52.23968         1.91011
C         25.72398        54.40361         2.19187
C         24.48274        55.09492         1.69268
C         25.75370        57.15986         1.19022
C         24.48896        56.47140         1.48858
C         25.79151        58.43133         0.54419
C         24.72664        59.05434        -0.14459
C         24.74012        60.41137        -0.51105
C         26.78323         8.74210         2.69618
C         27.82368        10.96863         2.77773
C         26.71299        10.15538         2.51940
C         27.70071        12.46670         2.70727
C         26.73570        12.81585         1.58290
C         28.08659        14.91147         1.01316
C         26.89603        14.06340         0.78212
C         28.16287        16.15380         0.41887
C         26.92791        16.74938        -0.11311
C         28.16922        18.81795        -0.54298
C         26.86888        18.09685        -0.42178
C         28.13143        20.29921        -0.66561
C         26.90484        20.97241        -0.75381
C         28.19325        23.03419        -1.04989
C         26.94517        22.37764        -0.91109
C         28.17832        24.49556        -1.46591
C         26.98971        25.18937        -0.79167
C         28.16143        27.34236        -1.12014
C         26.97272        26.67656        -1.05131
C         28.15694        28.81203        -1.48134
C         26.88334        29.52332        -1.07795
C         28.21393        31.73107        -0.92097
C         26.94488        30.96582        -0.75579
C         28.18919        33.21971        -0.87887
C         26.97934        33.86739        -0.78204
C         28.21390        36.03322        -0.51117
C         26.90671        35.30120        -0.37304
C         28.16501        37.52597        -0.29148
C         26.96898        38.15015        -1.10345
C         28.13370        40.38729        -0.96375
C         26.87635        39.63453        -0.82999
C         28.13590        41.82583        -0.51655
C         26.86129        42.43653        -0.10209
C         28.12519        44.44105         0.64569
C         26.86477        43.81051         0.30439
C         28.12518        45.83063         1.05190
C         26.86939        46.57306         1.06926
C         28.13276        48.57773         1.92920
C         26.85892        47.93272         1.43904
C         28.12214        50.08117         1.83983
C         26.89734        50.78288         1.84002
C         28.17705        52.91636         1.88435
C         26.91549        52.21267         1.89820
C         28.17575        54.34727         1.74857
C         26.99858        55.08412         1.75817
C         26.95749        56.45928         1.40345
C         28.99715        13.21776         2.59110
C         30.24433        15.27018         2.21699
C         29.12480        14.39753         1.90773
C         30.30678        16.53919         1.73223
C         29.37751        17.01876         0.65764
C         30.50496        18.80553         0.22072
C         29.07779        18.51260         0.67426
C         30.64109        20.08979        -0.61177
C         29.38807        20.92096        -0.78857
C         30.68798        23.05109        -1.21846
C         29.40771        22.32765        -0.98330
C         30.73698        24.53888        -1.16231
C         29.47132        25.24698        -1.19573
C         30.70412        27.31674        -0.61790
C         29.42681        26.61546        -1.06012
C         30.64887        28.83408        -0.74252
C         29.39174        29.56848        -1.03771
C         30.67046        31.77353        -0.86828
C         29.46502        31.05218        -1.43764
C         30.66811        33.17272        -0.77315
C         29.42935        33.92169        -0.77513
C         30.70833        36.06288        -0.28849
C         29.40435        35.34771        -0.59198
C         30.67468        37.53446        -0.66307
C         29.46888        38.20026        -0.67423
C         30.69085        40.34472        -0.53659
C         29.45082        39.63314        -1.16634
C         30.63059        41.85908        -0.45081
C         29.42669        42.46869        -0.16303
C         30.54463        44.28028         1.13705
C         29.33925        43.75515         0.49394
C         30.54859        45.76242         1.50506
C         29.32038        46.50269         1.26901
C         30.62963        48.64413         1.70259
C         29.34749        48.00788         1.20467
C         30.59420        50.01474         1.93551
C         29.36476        50.76506         1.89105
C         29.36970        52.18490         1.89708
C         31.38907        17.45990         2.04670
C         32.64715        19.55259         1.56426
C         31.52029        18.59444         1.31007
C         32.99552        20.47674         0.41143
C         31.94760        20.85584        -0.58089
C         33.25825        23.07857        -0.93473
C         31.97491        22.29834        -1.06044
C         33.22237        24.55325        -0.93703
C         31.95227        25.21817        -1.11534
C         33.19797        27.44848        -0.86699
C         31.93531        26.72806        -1.30743
C         33.18572        28.84691        -0.77451
C         31.91977        29.60531        -1.08673
C         33.17304        31.75758        -0.62945
C         31.88756        31.00212        -0.44022
C         33.14677        33.18087        -0.64468
C         31.91686        33.87794        -0.69003
C         33.18090        36.06738        -0.66224
C         31.88787        35.35910        -0.96888
C         33.15807        37.49626        -0.66182
C         31.94606        38.20459        -0.81995
C         33.24610        40.40582        -0.67704
C         31.97382        39.69582        -1.15112
C         33.20738        41.85672        -0.27079
C         31.91315        42.67783        -0.28203
C         33.08193        44.36555         1.18590
C         31.84109        43.50176         1.01756
C         33.02975        45.73721         1.51863
C         31.83868        46.48390         1.59921
C         31.82321        47.88015         1.75699
C         34.16254        21.15748         0.49529
C         35.54531        23.24750         0.19443
C         34.45839        22.39391        -0.25883
C         35.58562        24.60067        -0.14232
C         34.39238        25.27671        -0.63579
C         35.58351        27.45423        -0.32860
C         34.39572        26.72956        -0.61874
C         35.58900        28.88012        -0.33579
C         34.37212        29.58597        -0.53723
C         35.60222        31.75294        -0.39251
C         34.37186        31.03799        -0.53601
C         35.59883        33.18208        -0.39007
C         34.38669        33.90416        -0.55230
C         35.61574        36.04377        -0.28470
C         34.37717        35.34246        -0.51318
C         35.61311        37.45950        -0.20157
C         34.40793        38.20401        -0.41552
C         35.61164        40.28017         0.13878
C         34.42812        39.60137        -0.29806
C         35.55164        41.66252         0.51387
C         34.37694        42.39951         0.47698
C         34.30458        43.71454         1.01693
C         36.76493        25.35581         0.12782
C         38.00262        27.48545         0.18821
C         36.80743        26.75053        -0.01652
C         38.02871        28.89165         0.10871
C         36.80879        29.60741        -0.13723
C         38.03736        31.74717         0.01875
C         36.81674        31.02990        -0.18179
C         38.04019        33.16660         0.02157
C         36.82936        33.89242        -0.17449
C         38.05670        36.01912         0.14050
C         36.82710        35.31340        -0.11536
C         38.03794        37.41694         0.25361
C         36.83586        38.15334         0.10242
C         36.80249        39.55148         0.29983
C         39.23757        29.62603         0.28925
C         40.47715        31.76386         0.44487
C         39.25585        31.01913         0.24725
C         40.48333        33.12668         0.44615
C         39.26927        33.88397         0.25251
C         39.26312        35.27352         0.30444
O         33.61303        41.48196        -1.63739
O         21.98418        21.53008        -2.85589
O         23.63513        57.26114        -1.26876
O         15.45975        27.50914         1.05859
O         23.56102        22.82535         0.14227
O         34.29997        22.42571        -1.71720
O         29.80460        29.36559         0.34411
O         14.80233        33.51391        -2.98470
O         16.17460        31.10440        -2.97895
O         20.25590        11.56247         2.21937
O         21.60243        54.29708        -0.09763
O         28.06274        41.47238        -1.96329
O         30.42247        17.40207        -0.45239
O          7.98984        31.20038         2.03053
O         31.61697        19.95281        -1.67769
O         23.81172        39.75018         0.89421
O         31.40290        22.49213        -2.38697
O         12.17966        42.51737        -0.98838
O         24.78962        26.05390        -2.76433
O         18.42741        18.18445        -2.08025
O         20.97205        36.57442         0.71663
O         17.58652        25.96627         0.62607
O         14.95183        36.00568        -2.73907
O         16.49122        42.05363         1.06876
O         20.52992        33.00688         0.79650
O         22.42170        47.95053         2.49333
O         16.86873        18.64044         1.36910
O         30.35679        44.70128         2.52504
O         17.24123        44.40397        -1.80924
O         10.29388        36.98628        -1.47765
O         27.29260        12.69884         0.24587
O         18.59521        32.48529        -2.90623
O         19.70747        52.96074         2.91620
O         21.42930        13.56176        -1.54925
O         27.85681        31.18515         0.38912
O         30.91386        35.96775         1.13983
H         30.19973        36.47659         1.58119
O         21.98310        18.25118        -3.08294
H         21.62278        17.43809        -3.51310
O         24.69436        12.90493         2.80374
H         23.71350        12.96542         2.63125
O         27.16472        25.02978         0.64281
H         26.44897        25.55504         1.07334
O         31.82337        42.50508         2.07846
H         31.50742        42.96681         2.88914
O         19.04030        30.90849         0.36413
H         19.53990        31.65837         0.82446
O         19.12579        20.83133        -2.85917
H         19.99806        20.91890        -3.31175
O         28.19920        28.85106        -2.93791
H         27.45127        28.31907        -3.28430
O         28.56915        19.11929         1.84552
H         29.21531        18.99173         2.57157
O         21.98040        52.12473         3.61774
H         21.04559        52.17630         3.93164
O         18.08562        28.69083        -3.18098
H         18.03495        29.60029        -3.54983
O         27.27258        37.97640        -2.51204
H         28.09940        38.48481        -2.73078
O         25.09893        11.41441        -0.52517
H         26.07406        11.59749        -0.52477
O         12.97916        28.57508        -2.25437
H         13.04601        29.43063        -2.73226
O         20.50298        44.02952         1.17666
H         21.22121        44.37337         1.74935
O         19.09266        38.18456         1.19712
H         19.60620        37.43679         1.59213
O         17.76548        24.56052        -2.71889
H         18.35709        23.96994        -3.23194
O         13.65396        24.68411         2.02442
H         14.59825        24.49975         2.22471
O         22.06544        29.69584        -3.32525
H         22.57652        30.51894        -3.53449
O         24.70375        13.53922        -1.69818
H         24.76566        12.55502        -1.81689
O         17.20855        22.75399         1.17113
H         18.03555        22.34867         1.50621
O         30.86566        27.01934         0.78872
H         30.23898        27.59836         1.27810
O         27.13477        12.91816         3.97975
H         26.15206        12.83186         3.92810
O         22.04141        13.33208         2.08487
H         21.45167        12.83239         2.70828
O         25.37716        27.20247         0.62165
H         25.81903        27.93037         1.11084
O         22.08424        15.84107        -2.75265
H         23.03799        15.92135        -3.01160
O          9.61000        24.86363        -1.22021
H         10.31474        25.32129        -1.72383
O         22.22927        44.30344        -2.11421
H         21.38676        44.14044        -2.60742
O         31.78371        26.98969        -2.74061
H         32.41631        26.41593        -3.22352
O         31.99766        43.61738        -1.37387
H         32.44417        43.15503        -2.11784
O         23.12670        32.80209         0.70442
H         22.15646        32.84829         1.00005
O         27.94577        24.52714        -2.89537
H         28.65836        24.01737        -3.33508
O         25.65968        54.56274         3.65918
H         25.76168        55.51805         3.85565
O          8.87762        40.06371         1.72141
H          8.36040        40.23005         0.90692
O          6.97412        33.81224        -0.78986
H          7.63959        34.40396        -1.20470
O         23.38031        46.58859        -1.33246
H         22.96655        45.90979        -1.93026
O         16.91420        51.16485         3.01981
H         17.70388        51.69875         3.25735
O         21.54100        38.18969        -2.48974
H         22.11780        38.85139        -2.92890
O         19.67342        11.62627        -1.37609
H         20.34323        12.18084        -1.84977
O         23.24891        36.02885        -2.85088
H         22.50188        36.60047        -3.15085
O         10.85724        25.02417         2.23316
H         11.75393        24.86925         2.61491
O         18.57385         7.34479         0.69459
H         18.92791         7.40232        -0.21634
O         23.15398        58.45429         1.90928
H         24.05142        58.77584         2.13311
O         23.34118        32.06792        -2.92413
H         24.27239        32.37236        -3.08977
O         28.27596        48.23125         3.33597
H         27.48862        48.56523         3.81454
O         28.71387        18.38731        -1.81283
H         28.78992        17.40995        -1.82670
O         15.62062        22.98558        -2.11233
H         15.74212        22.04088        -2.34431
O         31.89186        29.79083        -2.53623
H         31.90926        28.88146        -2.93373
O         25.51805        31.80601         0.90851
H         24.59295        32.08570         1.13590
O         31.97835        39.78206        -2.58785
H         32.60890        40.49546        -2.83937
O         26.66101        35.27020         1.10649
H         26.13750        34.46194         1.30905
O         27.93664        37.77042         1.12092
H         27.34075        37.05645         1.45318
O         30.70436        39.96142         0.87394
H         31.06055        40.71265         1.40916
O         32.24369        20.39561         2.66823
H         32.99584        20.97800         2.90207
O         24.79763        16.21577        -2.43150
H         24.96546        15.23840        -2.45824
O         31.80885        30.86033         1.01123
H         30.90311        30.52963         1.22789
O         25.84488        32.90619        -2.59258
H         25.96771        33.78326        -3.01742
O         29.56193        39.52195        -2.60542
H         29.34078        40.40702        -2.97892
O         29.53185        31.19851        -2.86667
H         30.36181        30.74916        -3.16206
O         18.72886        16.22668         1.58554
H         18.17688        16.97494         1.90846
O         19.69285        44.16186        -2.36714
H         18.80643        44.08578        -2.79433
O         31.64395        35.49171        -2.40432
H         32.40498        35.10240        -2.88355
O         29.20791        48.38693        -0.19428
H         29.99879        48.07207        -0.67922
O         18.14883        46.86493        -1.76862
H         17.48392        46.36044        -2.29088
O         12.89918        40.21859        -2.35379
H         12.15522        40.83397        -2.53272
H          4.80300        31.32546         1.35724
H          5.12643        33.68029         1.24883
H          7.55926        26.98236         0.37887
H          6.37556        29.10365        -0.03949
H          6.52315        35.76056         1.55841
H          7.91412        37.81207         1.70847
H         10.07294        22.63538         0.92649
H          8.77700        24.88806         0.66671
H         10.61342        39.15366         2.32462
H         10.11734        41.88483         1.61606
H         12.42874        18.34529         0.66598
H         11.25353        20.49249         0.78812
H         11.54244        44.14792         1.89591
H         12.41480        46.43622         1.28790
H         14.91431        14.04550         0.74948
H         13.69864        16.16285         0.65204
H         13.54876        48.57889         1.23402
H         14.73608        50.67818         1.47344
H         17.27896         9.62661         0.72439
H         16.08043        11.88844         0.86936
H         16.10411        52.81710         0.58164
H         17.41203        54.95897         0.40372
H         19.94989         5.58059         1.81161
H         18.88710         8.14195         2.55775
H         18.78963        56.99833         0.01465
H         20.08631        59.05846        -0.25772
H         23.47796         2.45842         2.78992
H         21.29338         3.53732         2.26217
H         23.60363        62.11726        -1.20579
H         21.40026        61.01495        -1.06503
H         25.54520         3.81956         3.00652
H         26.65945         6.04040         2.99966
H         26.75963        58.96140         0.56016
H         25.64842        61.01369        -0.35525
H         27.73498         8.29391         3.01775
H         28.75587        10.51364         3.14445
H         29.13210        54.85416         1.54528
H         27.90093        56.94566         1.10879
H         29.79422        12.93278         3.29583
H         30.99580        14.91527         2.93854
H         31.52727        50.55242         2.16539
H         30.33200        52.71825         1.89046
H         32.11011        17.20072         2.83604
H         33.56545        18.97789         1.87329
H         33.98672        46.27376         1.61599
H         32.77679        48.40100         1.93778
H         34.87023        20.90065         1.30205
H         36.36072        22.80800         0.78778
H         36.44646        42.11120         0.97148
H         35.23922        44.22109         1.30256
H         37.66932        24.81878         0.44964
H         38.93203        26.94093         0.41219
H         38.97052        37.95503         0.47954
H         37.71984        40.07554         0.60599
H         40.17243        29.07569         0.47353
H         41.41043        31.20410         0.60467
H         41.42179        33.67732         0.60746
H         40.20178        35.81594         0.49280
