         490
 CSIRO Nanostructure Databank - Neutral Graphene Oxide Data Set
C         37.82540        50.10190         1.64019
C         36.73489        50.57743         2.30210
C         38.07137        51.99593         3.76919
C         36.85851        51.51338         3.38809
C         40.30747        48.68855         0.67607
C         40.39605        50.09294         1.24188
C         39.18157        50.34678         2.13579
C         40.57362        52.15717         3.21389
C         39.30977        51.40321         3.25116
C         40.57683        53.53309         3.28271
C         42.72683        48.37853         0.64978
C         41.38360        47.91652         0.40709
C         42.91295        49.51091         1.63761
C         41.68785        50.30109         1.99039
C         43.02768        52.22964         2.66682
C         41.84418        51.36031         3.05861
C         42.97610        53.61799         2.81403
C         41.78088        54.25938         3.19187
C         44.94473        45.75105        -0.78513
C         43.83491        46.40198        -0.37516
C         45.14916        48.45560         0.14403
C         43.85906        47.75702         0.15132
C         45.22188        49.82456         0.59350
C         43.98065        50.50402         1.10606
C         45.38580        52.49682         1.72696
C         44.29137        51.55466         2.19804
C         45.41921        53.79732         2.13212
C         44.24552        54.46162         2.80079
C         45.12466        56.58120         1.82758
C         44.06366        55.82364         2.14360
C         47.53874        44.29802        -1.37588
C         47.54209        45.59756        -0.59812
C         46.26664        46.44037        -0.97548
C         47.51642        48.56593        -0.59584
C         46.27436        47.81734        -0.36391
C         47.56025        50.01029        -0.19230
C         46.39637        50.58383         0.49894
C         47.70579        52.66502         0.83132
C         46.51156        51.90037         1.03840
C         47.77496        54.01656         1.22361
C         46.71425        54.57299         2.14960
C         47.70402        56.91331         1.58884
C         46.51738        56.09827         2.01927
C         47.62109        58.34006         1.22055
C         49.98405        44.25768        -1.16217
C         48.68724        43.69195        -1.69826
C         49.94876        45.77008        -1.29447
C         48.79869        46.39044        -0.95007
C         50.04064        48.60013        -0.80910
C         48.82008        47.80608        -0.42512
C         50.04983        49.99510        -0.55251
C         48.86147        50.68712        -0.11177
C         50.04777        52.82497         0.00887
C         48.87574        52.03867         0.24591
C         50.08280        54.18568         0.32190
C         48.92665        54.80799         0.93097
C         50.09078        56.98521         0.87456
C         48.93189        56.20726         1.15788
C         50.05780        58.40400         0.97216
C         48.76478        59.04736         1.02720
C         52.41165        41.55838        -2.30451
C         51.26923        42.24081        -1.99286
C         52.44560        44.37137        -1.70187
C         51.26488        43.62941        -1.65818
C         52.46575        45.81296        -1.69102
C         51.14377        46.54605        -1.80488
C         52.40034        48.69214        -1.43449
C         51.20646        47.96657        -1.27592
C         52.42723        50.09126        -1.19662
C         51.23441        50.73268        -0.79097
C         52.46485        52.97837        -0.86377
C         51.16585        52.19458        -0.70677
C         52.49736        54.33060        -0.29074
C         51.30058        54.94814         0.14762
C         52.51884        57.07025         0.41780
C         51.30878        56.32989         0.49019
C         52.51761        58.48477         0.69456
C         51.28465        59.14918         0.93568
C         52.48500        61.26665         1.19575
C         51.31002        60.55596         1.19105
C         55.00645        40.08329        -2.56980
C         54.94962        41.46145        -2.51429
C         53.71667        42.15038        -2.05422
C         54.94452        44.45033        -2.11584
C         53.73848        43.67202        -1.79337
C         54.92351        45.83757        -2.01671
C         53.65242        46.51532        -1.81151
C         54.90378        48.73521        -1.77893
C         53.60270        48.01083        -2.04933
C         54.89192        50.10852        -1.58398
C         53.67175        50.84203        -1.32665
C         54.95386        52.95426        -0.97699
C         53.71219        52.21960        -1.07006
C         54.96996        54.32347        -0.56848
C         53.73422        55.02103        -0.22153
C         54.99414        57.11856         0.28350
C         53.72795        56.38469         0.13868
C         54.97172        58.59664         0.31853
C         53.74027        59.23949         0.64383
C         54.96431        61.37348         0.81456
C         53.73232        60.63904         0.89939
C         55.04547        62.75699         1.19382
C         57.44826        40.01862        -2.34299
C         56.23293        39.37506        -2.52803
C         57.51715        41.47122        -2.54744
C         56.16777        42.23858        -2.71199
C         57.47787        44.45277        -2.44150
C         56.15924        43.73864        -2.56773
C         57.44582        45.90515        -2.09120
C         56.16265        46.60917        -2.06996
C         57.39760        48.75065        -1.85618
C         56.14517        48.00363        -1.92215
C         57.40748        50.10180        -1.68621
C         56.14353        50.90719        -1.85835
C         57.39677        52.97730        -1.13045
C         56.17697        52.29311        -1.24582
C         57.42881        54.34439        -0.75633
C         56.20593        55.00231        -0.49894
C         57.46935        57.18882        -0.33992
C         56.26071        56.40411        -0.04490
C         57.34806        58.67075        -0.57692
C         56.14140        59.33223         0.09021
C         57.31162        61.55896         0.01271
C         56.12396        60.73426         0.31331
C         57.40224        62.92158         0.54653
C         56.21542        63.47185         1.11753
C         59.87963        37.21312        -1.79976
C         58.70733        37.89925        -2.03140
C         59.86414        40.04068        -1.75169
C         58.67400        39.31498        -2.03552
C         59.84404        41.49182        -1.70820
C         58.70141        42.21345        -2.08705
C         59.84020        44.36442        -1.76925
C         58.71335        43.66904        -2.12913
C         59.94609        45.82265        -2.13971
C         58.63863        46.56830        -2.00411
C         59.93268        48.71190        -1.63232
C         58.69524        48.05693        -2.20851
C         59.93452        50.05762        -1.43345
C         58.70622        50.86831        -1.81228
C         59.95684        52.98133        -1.21465
C         58.66371        52.16708        -0.99134
C         59.90812        54.41365        -0.72287
C         58.69485        55.06800        -0.60381
C         59.91680        57.25935        -0.49574
C         58.67182        56.52204        -0.46727
C         59.87331        58.70001        -0.34537
C         58.65808        59.37748        -0.33604
C         59.89026        61.57442        -0.09954
C         58.64459        60.83899        -0.33254
C         59.85160        62.94093         0.18913
C         58.63145        63.62308         0.49045
C         59.85768        65.75480         0.70465
C         58.69798        65.03823         0.79743
C         62.40514        35.77849        -1.38207
C         62.32017        37.17379        -1.35183
C         61.08930        37.90122        -1.53583
C         62.25558        40.05557        -1.08269
C         61.07129        39.33005        -1.47591
C         62.17811        41.48861        -0.93814
C         61.03257        42.18677        -1.27037
C         62.28371        44.39724        -1.13366
C         60.95679        43.68076        -1.01682
C         62.31334        45.77929        -1.21273
C         61.12344        46.54274        -1.52345
C         62.40909        48.62932        -1.27013
C         61.14814        47.92452        -1.44383
C         62.44510        50.01086        -1.08382
C         61.16279        50.72988        -0.92769
C         62.44216        52.97490        -0.63499
C         61.15277        52.20828        -0.67898
C         62.37274        54.44109        -0.87574
C         61.16813        55.13303        -0.75234
C         62.36255        57.33625        -0.60588
C         61.14477        56.58880        -0.64182
C         62.35050        58.73228        -0.41836
C         61.11600        59.44702        -0.31294
C         62.36145        61.59606        -0.43226
C         61.13454        60.85379        -0.21155
C         62.28625        63.01135        -0.35856
C         61.17452        63.62640         0.46543
C         62.28187        65.87191         0.18582
C         61.11685        65.13864         0.38899
C         62.33408        67.32769         0.15885
C         64.68142        35.70729        -0.45108
C         63.54281        35.07128        -0.95550
C         64.79885        37.15515        -0.64853
C         63.54886        37.94048        -1.13816
C         64.64179        40.05422        -0.36094
C         63.46470        39.37792        -0.84412
C         64.63652        41.47338        -0.24092
C         63.34407        42.24951        -0.35259
C         64.72378        44.32646        -0.45129
C         63.55745        43.58600        -1.07255
C         64.63498        45.80466        -0.23117
C         63.55647        46.50177        -1.01112
C         64.97168        48.54908        -1.29366
C         63.62830        47.86298        -1.18549
C         64.90384        50.03796        -1.02538
C         63.70854        50.71821        -0.98424
C         64.94895        52.96277        -1.21350
C         63.71860        52.20786        -0.80216
C         64.94341        54.45403        -1.20991
C         63.61709        55.16689        -1.16753
C         64.91377        57.29852        -0.65534
C         63.63086        56.67299        -0.97440
C         64.83519        58.68397        -0.08894
C         63.58718        59.46655        -0.44623
C         64.93654        61.44465        -1.01062
C         63.59294        60.84991        -0.57946
C         65.04346        62.92936        -1.02207
C         63.29068        63.90069        -0.81059
C         64.76224        65.84217        -0.29610
C         63.48782        65.19599        -0.27115
C         64.80314        67.22161         0.35019
C         63.51701        67.97677         0.11814
C         66.81440        32.91801         0.89369
C         65.76256        33.59586         0.31653
C         66.85315        35.74491         0.76889
C         65.75025        35.01394         0.22483
C         66.86882        37.17120         0.70061
C         65.83822        37.90242         0.07592
C         66.81437        40.07208         0.82306
C         65.78254        39.32337         0.07972
C         66.91615        41.52784         0.67688
C         65.79789        42.19356         0.12843
C         66.99910        44.36702         0.49964
C         65.80245        43.64933         0.06343
C         67.08076        45.75120         0.28610
C         65.97469        46.49047        -0.22738
C         67.27379        48.57334        -0.16777
C         66.08617        47.84264        -0.54067
C         67.48814        49.97950        -0.71601
C         66.20971        50.74767        -1.06451
C         67.43616        53.00361        -0.60989
C         66.25565        52.24251        -1.07327
C         67.39417        54.44218        -0.58127
C         66.19159        55.17509        -0.84429
C         67.35037        57.27545        -0.20881
C         66.13640        56.58389        -0.59839
C         67.33840        58.70645        -0.05070
C         66.12929        59.41848        -0.24337
C         67.27720        61.55326        -0.02713
C         66.12722        60.81482        -0.33844
C         67.18203        63.03580         0.24287
C         66.04795        63.71002        -0.50385
C         67.28150        65.88615        -0.60835
C         65.97048        65.14702        -0.44884
C         67.27972        67.32678        -0.15556
C         66.07529        68.00444         0.09593
C         67.30087        70.10007         0.18564
C         66.10909        69.39189         0.30749
C         69.08002        31.47997         2.09814
C         68.99908        32.89600         2.11969
C         67.91859        33.60642         1.46719
C         68.97848        35.72722         2.09622
C         67.92961        35.02776         1.42366
C         68.92010        37.23429         2.20822
C         68.15396        37.88023         1.04894
C         69.19165        40.08225         1.80983
C         67.97761        39.33948         1.39423
C         69.17813        41.50407         1.75067
C         68.05977        42.22610         1.16449
C         69.27098        44.36906         1.52618
C         68.11479        43.64341         1.04503
C         69.37094        45.77566         1.34146
C         68.41371        46.44103         0.38377
C         69.32959        48.70658         1.28979
C         68.29632        47.93349         0.50210
C         69.66914        50.01652         0.54303
C         68.36091        50.81283         0.25776
C         69.71798        52.93716         0.27837
C         68.56643        52.27510        -0.11888
C         69.81791        54.38784         0.02789
C         68.58498        55.15586        -0.22609
C         69.76412        57.29659         0.35473
C         68.57006        56.56755        -0.05271
C         69.74722        58.72055         0.46288
C         68.52574        59.43668         0.20976
C         69.67182        61.61678         0.52753
C         68.48432        60.87006         0.28669
C         69.70826        63.02572         0.29535
C         68.49359        63.76111         0.07435
C         69.75775        65.84372        -0.16095
C         68.51191        65.12946        -0.14588
C         69.77486        67.27358        -0.26081
C         68.51497        68.02360        -0.17483
C         69.78004        70.21033        -0.14635
C         68.51348        69.43389        -0.04207
C         69.75475        71.58490        -0.66726
C         71.10905        31.53250         3.41619
C         70.11258        30.81108         2.73240
C         71.05729        32.91433         3.45548
C         70.00923        33.62495         2.81605
C         70.85416        35.86002         3.67815
C         69.95150        35.06536         2.83987
C         71.00958        37.18789         3.50793
C         70.34185        37.84766         2.32220
C         71.39187        40.10577         2.80947
C         70.28411        39.37320         2.34602
C         71.39205        41.49257         2.77735
C         70.29926        42.22038         2.25528
C         71.39937        44.41508         2.71975
C         70.32334        43.67045         2.18428
C         71.46575        45.78699         2.57093
C         70.47536        46.49155         1.84221
C         71.69120        48.66115         1.97759
C         70.58416        47.93557         1.64343
C         71.75722        50.09819         1.82058
C         70.77388        50.80642         1.20257
C         71.84347        53.04569         1.60651
C         70.99622        52.21106         0.67680
C         71.88749        54.38226         1.51798
C         71.02104        55.13030         0.58061
C         72.06957        57.31585         1.15749
C         70.94847        56.60631         0.71240
C         72.04992        58.71053         1.23538
C         70.90780        59.42529         0.87548
C         72.15497        61.58742         0.49904
C         70.90878        60.93078         1.04203
C         72.16369        62.89680         0.15917
C         70.95558        63.69707         0.16055
C         72.20774        65.82922        -0.14602
C         70.98284        65.11273        -0.05275
C         72.21520        67.19956        -0.29931
C         71.01084        67.94307        -0.32370
C         72.18498        70.12032        -1.00460
C         71.07980        69.42993        -0.32676
C         72.11288        71.44837        -1.28577
C         70.88894        72.18632        -1.11394
O         47.35287        49.59246        -1.62307
O         56.97310        41.84591        -3.85210
O         64.94275        53.67557        -2.48156
O         39.44519        49.96733         3.51815
O         55.84037        56.56382         1.38283
O         63.27522        52.63597         0.53633
O         48.91543        47.59797         0.99339
O         63.51583        56.06826        -2.31813
O         56.82982        44.32525        -3.74889
O         51.50788        52.86343        -1.97423
O         57.77865        61.42282        -1.37938
O         64.64728        37.58432        -2.03764
O         71.02247        54.70377        -0.82696
O         64.11215        63.52623        -1.90043
O         66.84030        39.61084         2.28143
O         60.97699        51.32387         0.44043
O         66.44477        51.46655        -2.33922
O         47.30275        56.78270         3.05326
O         53.92710        42.69231        -0.70272
O         70.70477        70.00905         0.97328
O         64.69863        58.49525         1.38399
H         64.75958        59.38157         1.80178
O         66.84278        63.12647         1.67235
H         66.82507        64.07753         1.91387
O         57.08118        58.81625        -2.02213
H         57.18942        59.78010        -2.22007
O         69.04305        46.26438        -0.95360
H         69.48597        47.11004        -1.19158
O         44.57598        54.68132         4.20025
H         45.56279        54.65206         4.27861
O         47.23727        54.33576         3.50453
H         47.71257        55.17065         3.75398
O         40.34577        51.04470         0.13385
H         41.25346        51.08794        -0.24911
O         60.57788        43.82139         0.40176
H         61.35780        43.50744         0.92740
O         61.50426        63.31054         1.87247
H         60.77916        63.67471         2.42411
O         64.14271        45.93491         1.16555
H         64.67734        45.33147         1.72516
O         67.53737        50.91509         1.46082
H         67.96614        51.54894         2.07436
O         42.12972        50.70795         4.36248
H         41.33267        50.16747         4.57084
O         65.34890        48.42429        -2.70950
H         66.22416        48.86317        -2.81724
O         71.74362        52.03915        -0.58030
H         71.76630        52.93758        -0.99932
O         65.05974        61.04566        -2.41860
H         64.51816        61.67883        -2.94057
O         50.00446        43.97952         0.27217
H         49.17826        44.36710         0.66180
O         44.88969        50.86178         3.32342
H         44.99666        51.50918         4.05173
O         63.91900        43.25417        -2.44405
H         64.04585        44.09025        -2.94004
O         68.21995        37.50856         3.44479
H         67.50478        38.16654         3.29229
O         68.72652        48.94920         2.59055
H         67.86546        49.40780         2.43961
O         60.24120        53.10870        -2.62974
H         59.47494        53.53031        -3.07148
O         58.81051        51.15597        -3.24109
H         58.90532        50.27621        -3.68757
O         53.39802        48.13431        -3.51342
H         53.54312        49.07559        -3.75460
O         56.07021        51.17625        -3.31264
H         56.99315        51.39294        -3.60198
O         50.92609        46.68458        -3.24932
H         51.70830        47.16939        -3.61345
O         70.26553        49.59221        -0.70451
H         70.79789        50.34704        -1.05280
O         47.58010        45.34743         0.81680
H         48.02184        46.16371         1.21579
O         70.93531        61.15805         2.50283
H         70.87922        62.12711         2.64539
O         64.84556        66.94563         1.79779
H         64.00521        66.49670         2.03318
O         60.24425        45.83730        -3.59906
H         59.57762        45.26244        -4.03758
O         68.94382        37.84737        -0.17962
H         68.86730        36.94856        -0.56530
O         71.15461        37.48114         1.17980
H         70.71089        37.84386         0.37655
O         43.34873        51.18065        -0.01571
H         44.05120        51.55216        -0.59085
O         58.57633        51.72367         0.38473
H         58.71905        52.49075         0.97703
O         46.42702        46.64911        -2.41535
H         45.81443        47.36160        -2.69429
O         62.98193        42.59284         1.03135
H         62.92686        41.75876         1.54458
O         68.16240        49.73611        -1.96538
H         67.95390        50.50435        -2.55328
O         67.43722        65.96266        -2.07587
H         68.30343        66.38653        -2.25687
O         58.83370        48.25561        -3.67043
H         59.48817        47.57732        -3.97771
O         43.40020        48.84301         2.82233
H         43.31684        49.46440         3.58956
H         37.69702        49.55940         0.69217
H         35.72702        50.34267         1.93129
H         38.14062        52.83266         4.47954
H         35.93985        51.93276         3.82208
H         39.30566        48.31390         0.42045
H         39.63337        54.07416         3.44823
H         41.23077        46.94320        -0.08322
H         41.77157        55.34043         3.38102
H         44.85732        44.70141        -1.10212
H         42.88579        45.84815        -0.32501
H         44.97878        57.58934         1.40964
H         43.04953        56.21481         1.97112
H         46.58140        43.88486        -1.72668
H         46.65062        58.85309         1.27096
H         48.67273        42.76778        -2.29515
H         48.70080        60.13238         0.86355
H         52.35019        40.56209        -2.76440
H         50.30708        41.72134        -2.09985
H         52.44999        62.34474         1.40205
H         50.37124        61.08302         1.40865
H         54.07973        39.49806        -2.48965
H         54.15942        63.24927         1.61560
H         56.17362        38.27999        -2.47561
H         56.22455        64.50333         1.49459
H         59.86519        36.11628        -1.83164
H         57.79520        37.32652        -2.24125
H         59.82040        66.84307         0.85620
H         57.76890        65.57486         1.03006
H         61.52171        35.18450        -1.65218
H         61.39360        67.89451         0.10138
H         63.46859        33.97588        -0.92144
H         63.52632        69.07359         0.04808
H         66.77336        31.82136         0.92726
H         64.92711        33.01628        -0.09756
H         67.29229        71.18944         0.32669
H         65.19339        69.94095         0.56357
H         68.32304        30.89227         1.56163
H         68.79684        72.12286        -0.71379
H         71.93002        30.99660         3.91230
H         70.15818        29.71373         2.69787
H         71.84976        33.46632         3.97867
H         71.38454        35.35315         4.49766
H         71.67586        37.76250         4.16809
H         72.26816        39.57570         3.20713
H         72.27688        42.02145         3.15462
H         72.20390        43.90909         3.26896
H         72.31192        46.32931         3.01355
H         72.60349        48.16196         2.33446
H         72.68015        50.59200         2.15835
H         72.47896        52.53863         2.34647
H         72.51315        54.95524         2.21821
H         72.98886        56.77875         1.42758
H         72.94187        59.23980         1.59685
H         73.09246        61.01303         0.47532
H         73.10800        63.35713        -0.16418
H         73.16546        65.29800        -0.07190
H         73.17709        67.72852        -0.34155
H         73.07039        69.54377        -1.30952
H         72.96372        71.95431        -1.76372
H         70.85462        73.22701        -1.46640
