         276
 CSIRO Nanostructure Databank - Neutral Graphene Oxide Data Set
C        -11.32507         0.61125         0.80314
C        -10.11368         1.45924         0.94118
C         -8.80363         0.74002         0.92692
C         -7.62613         1.44107         0.32416
C         -6.29865         0.77975         0.55274
C         -5.04616         1.64501         0.68102
C         -3.73954         0.81724         0.48954
C         -2.45992         1.54809         0.20068
C         -1.34229         0.77403        -0.47001
C         -0.12576         1.47976        -0.98909
C          1.17519         0.70846        -1.22325
C          2.48903         1.41463        -0.90223
C          3.82446         0.70616        -0.77388
C          5.11737         1.47120        -0.51640
C          6.34327         0.64744        -0.17853
C          7.21582         1.17219         0.95885
C          8.60262         0.45342         0.98798
C          9.95987         1.28298         0.81290
C         10.90533         0.57717        -0.14630
C        -10.09628         2.91386         0.60019
C         -8.98559         3.58782         0.20331
C         -7.72707         2.85694        -0.13595
C         -6.43182         3.58078        -0.47121
C         -5.10608         2.91396        -0.18563
C         -3.84263         3.73945        -0.15000
C         -2.51670         3.05137         0.04177
C         -1.21435         3.74498        -0.27296
C         -0.03040         2.96342        -0.76172
C          1.21745         3.67826        -1.19505
C          2.51305         2.91524        -0.98612
C          3.71727         3.62920        -0.46517
C          5.00115         2.90482        -0.07497
C          6.03828         3.57393         0.81485
C          7.27158         2.75099         1.05239
C          8.64760         3.48873         0.98665
C          9.58545         2.60892         0.24456
C         -9.02316         5.09561        -0.00737
C         -7.65663         5.76568         0.10712
C         -6.59411         5.10120        -0.77126
C         -5.21725         5.84958        -0.81673
C         -3.89330         5.11864        -0.73831
C         -2.60088         5.90658        -0.72783
C         -1.25842         5.28760        -0.28990
C         -0.15995         5.91888        -1.18690
C          1.20756         5.17463        -1.12904
C          2.32555         5.83934        -0.38213
C          3.56679         5.03793        -0.00348
C          4.80756         5.74968         0.41341
C          6.13917         5.09091         0.72708
C          7.45717         5.65969         0.27521
C          8.58789         4.92686         0.45578
C         -7.53426         7.02798         0.56129
C         -6.20059         7.73177         0.66652
C         -5.20881         7.31783        -0.43398
C         -3.92474         8.09727        -0.38057
C         -2.63846         7.40609        -0.68026
C         -1.33260         8.05778        -0.21847
C         -0.10507         7.44818        -0.92382
C          1.16754         8.17534        -0.64461
C          2.30957         7.32290        -0.16973
C          3.55532         7.99994         0.33291
C          4.84312         7.23478         0.23800
C          6.14353         7.89293         0.53412
C          7.17940         6.91966         1.09855
C         -6.25388         9.24845         0.71349
C         -5.13470         9.98879         0.63624
C         -3.78532         9.30794         0.55055
C         -2.57956        10.15727         0.15142
C         -1.38370         9.57627        -0.16523
C         -0.08340        10.24728        -0.08788
C          1.11233         9.59345        -0.16404
C          2.43444        10.34260        -0.02422
C          3.61625         9.48656         0.46083
C          4.97981        10.09219         0.59574
C          6.10741         9.36677         0.75798
C        -11.30438        -0.74117         0.73012
C        -10.06326        -1.55911         0.74358
C         -8.78404        -0.76709         0.76852
C         -7.64065        -1.27438        -0.07857
C         -6.29549        -0.69348         0.25020
C         -5.02311        -1.38489        -0.13607
C         -3.74127        -0.64464         0.07922
C         -2.44817        -1.41992         0.46019
C         -1.18150        -0.65937        -0.00720
C          0.07844        -1.43304        -0.29026
C          1.21521        -0.77961        -1.04660
C          2.58161        -1.47573        -1.11922
C          3.90535        -0.75432        -1.18353
C          5.27640        -1.52736        -1.28869
C          6.42799        -0.80045        -0.55472
C          7.60818        -1.65224        -0.11862
C          8.71119        -1.01634         0.69211
C         10.12801        -1.65031         0.57908
C         10.97392        -0.74939        -0.29164
C        -10.02323        -2.94605         0.17418
C         -8.89084        -3.68876         0.10079
C         -7.55229        -3.15761         0.56746
C         -6.34665        -3.61424        -0.30095
C         -5.06884        -2.87742         0.08777
C         -3.76730        -3.58476         0.22182
C         -2.50612        -2.83833        -0.10703
C         -1.27514        -3.61682        -0.44810
C          0.07029        -2.96759        -0.08220
C          1.25357        -3.67081        -0.73393
C          2.55024        -2.97162        -0.97317
C          3.82502        -3.64999        -0.54649
C          5.16230        -2.98476        -0.75402
C          6.43214        -3.87551        -0.95351
C          7.66966        -3.12905        -0.41307
C          8.81385        -3.85959         0.19041
C         10.15297        -3.14590         0.13173
C         -8.83778        -5.10436        -0.49126
C         -7.55979        -5.88170        -0.14587
C         -6.25812        -5.13729        -0.19181
C         -4.97936        -5.82279         0.17102
C         -3.70776        -5.07026         0.43519
C         -2.40090        -5.79685         0.40833
C         -1.38730        -5.17477        -0.57406
C         -0.04682        -5.90854        -0.60930
C          1.25338        -5.17649        -0.59957
C          2.43329        -5.90221         0.02721
C          3.75541        -5.10232        -0.04861
C          5.02269        -5.85616         0.15998
C          6.34683        -5.41428        -0.48148
C          7.50446        -5.94661         0.38848
C          8.71706        -5.16527         0.54172
C         -7.55292        -7.22964         0.00936
C         -6.32767        -8.00041         0.38526
C         -5.03635        -7.27115         0.53855
C         -3.73224        -8.03652         0.52732
C         -2.42972        -7.30546         0.56488
C         -1.10329        -8.06440         0.49009
C         -0.05099        -7.41732        -0.41984
C          1.23483        -8.16954        -0.47354
C          2.52528        -7.37724        -0.46363
C          3.77109        -8.11449        -0.10088
C          4.94594        -7.33997         0.42484
C          6.21987        -8.07090         0.68181
C          7.45627        -7.25109         0.78743
C         -6.22103        -9.48409         0.24150
C         -5.04346       -10.12821         0.11841
C         -3.73452        -9.39988        -0.14170
C         -2.44030       -10.16498         0.08129
C         -1.23074        -9.55225         0.19987
C          0.05841       -10.25432         0.16374
C          1.23762        -9.61200        -0.07112
C          2.55233       -10.34601        -0.29732
C          3.71649        -9.57806         0.36095
C          5.08513       -10.20955         0.16703
C          6.22628        -9.52121         0.35938
O          6.45555         5.94817         1.99685
O         -2.03883        -2.93337        -1.48022
O          3.86085         5.24037         1.40289
O         -4.87851         8.27856        -1.46804
O         -4.55032         5.36954        -2.00250
O         -0.12020        -0.74757         0.99010
O          0.61984         8.09175        -2.01715
O         -1.20097         1.06006        -1.88298
O         -2.54741         6.74268        -1.93464
O         -2.76297         1.07261         1.54230
O         -7.92343         1.73594        -1.07633
O         -7.33020        -3.01981         1.80029
O         -4.27711        -0.86635        -1.26868
O          6.39122         3.12897         2.14898
O          7.01126         0.27063        -1.40370
O         -5.83653        -7.55648         1.71888
O          1.71565        -3.42109        -2.09012
O         -9.20338        -1.44794         1.94507
O          8.18995        -2.15877        -1.38211
O          4.44945        -5.12773         1.25946
O          2.96247         0.91555         0.39823
O         -3.18946         3.72584         1.14552
O         -7.16320         5.21941        -2.03542
O          0.31736        -8.07065        -1.64480
O          4.50364        -2.87904         0.52474
O          3.47933        -7.76290        -1.49441
O          1.37880         4.48052        -2.39277
O         -2.86149        -5.19532         1.63503
O          0.97716        -0.17144        -2.35015
O          5.29319        -7.69616         1.80092
O         -5.35789        -5.63013        -1.25229
O          5.60242         2.52909        -1.37725
O          1.75014         6.39691         0.84461
O         -4.51278        -3.09890         1.40204
O          3.50329         3.46470        -1.89418
O          8.52429        -0.53015         2.05026
O         -1.14749         7.79089         1.16273
O          3.32223         8.64773         1.62356
O          0.70657        -5.68361        -1.84390
O         -6.31330        -0.20439         1.62316
O          3.18517        -1.07049        -2.38941
O         -0.19266         3.27212         0.66963
O         -0.46351        -7.90489         1.72714
O          6.51615        -6.22979        -1.59185
O         -5.69478         2.82676        -1.49068
O          5.74258         7.58207        -0.86000
O         -9.31635         1.20683         2.18179
O         -3.07090        -7.81452         1.78332
O         -9.97607         5.69493         0.86018
H         -9.68689         5.56390         1.78637
O          9.07981         3.63890         2.36062
H          8.31553         4.00051         2.86494
O         -7.98643        -1.29586        -1.38332
H         -7.20902        -1.42049        -1.97312
O         10.57169         1.35748         2.10490
H         10.19584         2.14209         2.57254
O          6.47023         0.72867         2.09675
H          6.98530         0.89175         2.91419
O         -5.09062         2.13478         2.02513
H         -5.04560         1.37148         2.64060
O          5.62333        -1.54796        -2.67095
H          6.05527        -0.69150        -2.89122
O         -3.75742        -9.07005        -1.57172
H         -3.64781        -9.90070        -2.08055
O          2.77651       -10.47907        -1.70241
H          2.88199        -9.57578        -2.08342
O          2.77792        10.89876        -1.30601
H          2.42665        10.32124        -2.01482
O         -0.58518         5.71683        -2.53563
H         -0.16290         6.39996        -3.09953
O         -8.93140        -4.99626        -1.91824
H         -8.17213        -4.45000        -2.22588
O         -1.07224         5.65382         1.08515
H         -0.11248         5.66800         1.31674
O         -5.64620         7.22659         1.91323
H         -4.87573         7.80391         2.17017
O          2.07358        -6.01442         1.41575
H          2.88756        -5.88375         1.96011
O         10.64390        -3.27566        -1.20542
H          9.92604        -2.99718        -1.81765
O          6.59702        -3.99014        -2.36343
H          6.65040        -3.08516        -2.75240
O         -6.57935        -3.34435        -1.70526
H         -5.98323        -3.95775        -2.20155
O          3.40383        -9.57640         1.76845
H          4.08457        -9.02509         2.22713
O          0.26966        -3.23647         1.31584
H         -0.25186        -2.58142         1.83873
O         10.72092        -1.64990         1.88846
H         10.72452        -0.72459         2.22852
O         -3.48718         8.83106         1.89604
H         -2.57521         8.41145         1.87688
O         -2.38068        -1.56214         1.87697
H         -2.30590        -0.66574         2.27932
O         -2.01071        -5.45099        -1.84259
H         -1.32937        -5.33755        -2.54322
H         11.68992        -1.20636        -0.99109
H         11.57028         1.22826        -0.73384
H          9.57787         2.69856        -0.85363
H          9.54859         5.46117         0.53437
H          8.04019         7.40315         1.61194
H          7.06248         9.88019         0.94877
H          5.03111        11.18899         0.66960
H          2.30499        11.20158         0.68412
H         -0.08932        11.32023         0.16369
H         -2.63315        11.24796         0.30245
H         -5.18137        11.08748         0.68191
H         -7.23510         9.73804         0.81183
H         -8.40501         7.50581         1.04045
H         -9.37035         5.27537        -1.06177
H        -11.01846         3.48951         0.78176
H        -12.29308         1.12983         0.72686
H        -12.25565        -1.27740         0.58996
H        -10.97823        -3.37435        -0.17124
H         -9.72876        -5.68649        -0.14763
H         -8.50339        -7.78499        -0.04438
H         -7.15202       -10.06689         0.32916
H         -5.03751       -11.22917         0.07168
H         -2.47437       -11.25874        -0.06045
H          0.05599       -11.34811         0.29589
H          2.49614       -11.37369         0.13759
H          5.13035       -11.27970        -0.08547
H          7.20176       -10.01552         0.23701
H          8.31184        -7.68149         1.33294
H          9.60167        -5.68398         0.94438
H         10.87856        -3.67466         0.79579
