         294
 CSIRO Nanostructure Databank - Neutral Graphene Oxide Data Set
C          1.27095         2.16639         0.62588
C          1.26763         3.55971         0.38762
C          2.46067         1.47991         0.64331
C          2.43877         4.24708         0.08414
C          1.16470         6.37680        -0.54183
C          1.12144         7.68870        -0.81460
C          2.41444         5.76679         0.05712
C          2.34073         8.51841        -0.60474
C          1.10360        10.82664        -0.66685
C          1.15598        12.13783        -0.93913
C          2.33222        10.01397        -0.50937
C          2.44354        12.92902        -1.13208
C          1.34458        15.19679        -1.09449
C          1.47497        16.57136        -1.00752
C          2.29007        14.28947        -0.46847
C          2.50462        17.21065        -0.29530
C          2.59728        18.62310        -0.34397
C          3.69982         2.14808         0.36830
C          3.68554         3.55468         0.01655
C          4.89151         1.45157         0.57443
C          4.91795         4.25430        -0.24280
C          3.64755         6.34285        -0.63405
C          3.61918         7.79075        -0.99559
C          4.94307         5.63852        -0.48211
C          4.92806         8.54562        -1.28017
C          3.61536        10.69850        -0.97455
C          3.65418        12.17046        -0.62953
C          4.88591         9.90804        -0.53791
C          4.78076        12.83891        -0.16337
C          3.49081        14.92969         0.29058
C          3.37641        16.42838         0.67814
C          4.75339        14.22580         0.13828
C          4.75143        17.10496         1.03418
C          3.70328        19.29107         0.12360
C          4.84730        18.57977         0.62573
C          6.18104         2.02297         0.21967
C          6.18946         3.49264        -0.25400
C          7.41183         1.50597         0.83295
C          7.44994         4.23725        -0.09030
C          6.16410         6.38818        -0.65300
C          6.17759         7.74997        -0.90851
C          7.47745         5.61914        -0.71454
C          7.44737         8.52375        -0.99824
C          6.10572        10.81713        -0.78552
C          6.08532        12.07824         0.12134
C          7.42666        10.02044        -0.76302
C          7.34483        12.92153        -0.11664
C          6.01595        14.87577         0.66889
C          5.98181        16.40382         0.41537
C          7.31630        14.24602         0.15162
C          7.23429        17.03669         1.04325
C          6.05364        19.21447         0.66517
C          7.31418        18.55921         1.15398
C          8.55131         2.25122         0.87748
C          8.57959         3.61568         0.37666
C          9.77716         1.73068         1.59332
C          9.84645         4.40457         0.64404
C          8.64622         6.44457        -0.26776
C          8.78573         7.77901        -0.94386
C          9.90202         5.67390        -0.16299
C          9.91648         8.54194        -0.22240
C          8.63395        10.74139        -0.16178
C          8.57602        12.22638        -0.74734
C          9.94313        10.03723        -0.35630
C          9.91284        12.93131        -0.44367
C          8.53591        15.15660        -0.05672
C          8.53594        16.30998         0.96894
C          9.88205        14.41893        -0.18257
C          9.80337        17.13891         1.32817
C          8.53977        19.04413         0.39285
C          9.76616        18.41833         0.45873
C         11.08288         2.27554         1.05851
C         11.11788         3.59133         0.56110
C         12.27702         1.55795         1.24055
C         12.35291         4.18768         0.23019
C         11.21279         6.35243        -0.41418
C         11.25809         7.83866        -0.37214
C         12.52167         5.58223        -0.34323
C         12.41328         8.49878        -0.09363
C         11.14339        10.73771        -0.17505
C         11.12168        12.14568        -0.11349
C         12.49907        10.01014        -0.30689
C         12.44255        12.87363        -0.04071
C         11.15356        15.19605         0.19770
C         11.01950        16.16593         1.38659
C         12.31792        14.29184         0.45256
C         12.32185        16.93755         1.50253
C         10.90931        19.02152        -0.17773
C         12.19815        18.88283         0.38317
C         13.50257         2.16223         0.94254
C         13.53726         3.46988         0.42264
C         14.84598         1.64379         1.35919
C         14.87787         4.13513         0.15279
C         13.68892         6.31448         0.28638
C         13.64178         7.80655         0.50036
C         14.84344         5.61899         0.47648
C         14.97318         8.50441         0.10537
C         13.58163        10.59480         0.61178
C         13.52763        12.10786         0.74451
C         14.92148         9.93513         0.62827
C         14.78841        12.77605         0.95047
C         13.48554        14.86922         1.19083
C         13.53520        16.38975         1.20657
C         14.73631        14.21187         0.67434
C         14.74674        17.14698         0.84287
C         13.46768        19.07364        -0.12278
C         14.66985        18.68124         0.73556
C         15.93988         1.93886         0.36730
C         15.97528         3.34251         0.88864
C         16.88686         1.26938        -0.29389
C         17.33335         4.03055         1.04798
C         16.14492         6.27367         0.61363
C         16.22270         7.74272         0.54590
C         17.29049         5.51145         0.64844
C         17.41790         8.39595         0.81749
C         16.06329        10.59949         0.94173
C         16.06384        12.08188         1.34854
C         17.37225         9.87996         1.06415
C         17.24193        12.82903         0.72321
C         15.94198        15.01488         0.43127
C         15.89442        16.49923         0.47543
C         17.22871        14.28940         0.53481
C         16.93199        17.16735        -0.41435
C         15.92805        19.33531         0.22968
C         17.08964        18.64610        -0.12008
C         18.25894         1.88016        -0.46849
C         18.45827         3.22254         0.30541
C         18.82326         1.96655        -1.87036
C         19.69801         3.98161        -0.03598
C         18.52742         6.21761         0.13112
C         18.67257         7.61710         0.72146
C         19.82261         5.43534         0.41347
C         19.94997         8.00205         1.05733
C         18.60113        10.78275         0.97941
C         18.46220        12.17232         0.48064
C         19.94153        10.21284         0.84500
C         19.53790        12.73020        -0.23333
C         18.38930        14.97154        -0.10184
C         18.26674        16.41235        -0.53051
C         19.51932        14.16101        -0.69758
C         19.57129        17.12945        -0.51182
C         18.31315        19.30829        -0.26848
C         19.63520        18.60358        -0.14940
C         20.02468         2.60032        -2.08621
C         20.56448         3.52240        -1.14708
C         21.88413         4.06898        -1.18541
C         21.03200         6.17357        -0.22371
C         21.29367         7.40402         0.66437
C         22.17627         5.24205        -0.53577
C         22.18362         8.41319        -0.05948
C         20.88968        10.58686        -0.05148
C         20.67548        11.89418        -0.80777
C         22.04749         9.73544        -0.31497
C         21.96304        12.70201        -0.89517
C         20.86353        14.84973        -0.35289
C         20.87337        16.37664        -0.32960
C         22.04874        14.02726        -0.70293
C         22.05624        17.14990        -0.70265
C         20.78532        19.23965        -0.88910
C         21.94079        18.50084        -1.07479
O          8.41083        12.19179        -2.10940
O         12.95187        10.20649        -1.63753
O         18.28096        14.94272         1.35184
O         15.39546         2.80329         2.16646
O         13.10359        11.18165         1.82964
O         18.03213        10.40970         2.27719
O         10.48380         5.66570        -1.52148
O         20.18101         9.18337         1.76892
O         19.65708         3.08382         1.13543
O         18.93354        16.77605        -1.79499
O         12.14534        18.30841         1.69451
O          3.38123         6.77686        -2.02197
O          2.39754         9.20239         0.69217
O          6.26579         2.39319        -1.20400
O          7.58975         9.49034        -2.10034
O          2.41164        14.17098         0.97245
O          7.70421        16.21625         2.15186
O         20.94591        15.55596         0.90551
O         15.13656        14.51886        -0.71479
O         10.13739        13.93282        -1.52421
O         13.37832        14.41568         2.57738
H         12.46717        14.64639         2.89477
O          9.57870         8.38397         1.21214
H         10.37266         8.61940         1.74124
O          5.95979        11.34444        -2.11865
H          6.87404        11.66660        -2.40909
O         19.11362         0.87302         0.14642
H         19.79432         1.36999         0.66780
O         14.52453        19.23498         2.06523
H         13.62379        18.99292         2.39116
O          9.66746         2.17064         2.97351
H         10.48570         1.90280         3.44193
O          9.72505        17.56471         2.70140
H          8.81927        17.93635         2.87767
O          4.85832         9.52357         0.83869
H          5.01297        10.31932         1.40646
O          5.03215         8.71777        -2.70185
H          4.69710         7.88745        -3.11038
O         18.30436         6.25234        -1.30736
H         17.49472         6.78560        -1.46873
O          5.88191        16.63701        -0.99364
H          6.73287        16.35254        -1.42090
O         20.71826         6.74261        -1.51585
H         20.29432         6.05960        -2.07803
O         19.41020        14.16914        -2.14479
H         19.30820        15.11316        -2.42977
O         16.14679        12.18440         2.79568
H         16.86394        11.56554         3.08249
O          2.59169        16.48904         1.90511
H          2.05318        15.65766         1.92778
O          5.90086        14.54963         2.08641
H          5.60124        15.37539         2.55848
O          2.45475         6.18161         1.45063
H          3.29945         5.87615         1.84142
O         20.28885        11.55662        -2.16866
H         19.98393        12.39215        -2.59624
O         22.03014         7.02171         1.84090
H         21.86248         7.70323         2.52541
O         17.67017         4.02652         2.45156
H         17.02923         3.43398         2.90965
O          9.18725         7.59303        -2.32817
H          8.92101         8.41586        -2.80763
O         12.95497         5.40496        -1.73521
H         12.13482         5.27847        -2.26992
O         12.91110        12.88521        -1.42415
H         12.93492        11.91292        -1.72920
O          7.68235         5.33380        -2.14098
H          8.30697         6.01774        -2.50056
O          6.04367        11.74919         1.52997
H          6.03865        12.60736         2.02370
O          4.92622        17.02119         2.46243
H          4.01759        17.05232         2.85329
O          3.48910        10.66117        -2.42682
H          4.41186        10.79930        -2.77798
O         13.50525         8.03386         1.93810
H         12.86217         7.38983         2.30102
O          2.60942        13.18099        -2.54767
H          2.84041        12.30342        -2.94827
O         19.96316        18.66205         1.28150
H         20.69858        18.03466         1.45303
O         16.33491        17.11009        -1.74133
H         17.06144        17.24192        -2.39099
O          8.37839        15.81109        -1.35103
H          8.70479        15.16169        -2.02271
O          8.47027        10.91825         1.26023
H          8.60149        10.03473         1.68009
O         15.05584         8.57633        -1.33039
H         14.29294         9.15976        -1.65346
O         10.79308        15.33138         2.54546
H         10.31935        15.92012         3.19121
O          9.76233         4.85166         2.03534
H          9.64118         4.03960         2.59049
O         11.47366        16.03510        -0.94704
H         11.55867        15.42913        -1.71991
O         15.20820         4.00888        -1.24977
H         14.51339         4.51487        -1.74827
O          7.44810        18.92590         2.56584
H          7.56236        19.89774         2.61274
O         20.02651         5.46266         1.82941
H         19.48733         4.73850         2.23246
H          0.32529         1.65011         0.84026
H          0.31864         4.10629         0.47203
H          2.48459         0.40585         0.87633
H          0.28213         5.74524        -0.71908
H          0.20667         8.15563        -1.21039
H          0.13210        10.32795        -0.52585
H          0.21806        12.70327        -1.05673
H          0.68145        14.77688        -1.86464
H          0.79868        17.20169        -1.60506
H          1.79363        19.18261        -0.84641
H          4.85895         0.45366         1.03789
H          3.78343        20.38079        -0.00345
H          7.37262         0.52420         1.32980
H          6.11267        20.27551         0.37123
H          9.78870         0.60555         1.57647
H          8.45789        19.99588        -0.15677
H         12.24893         0.54450         1.67006
H         10.74598        19.68819        -1.03739
H         14.84872         0.67880         1.91349
H         13.61559        19.46945        -1.13657
H         16.80892         0.18457        -0.46270
H         15.97804        20.42875         0.35349
H         18.42552         1.28586        -2.63752
H         18.33005        20.40179        -0.13004
H         20.56663         2.43676        -3.03097
H         22.67248         3.51457        -1.71962
H         23.20754         5.62425        -0.51575
H         23.13714         7.95927        -0.37853
H         22.87572        10.20561        -0.86878
H         22.87235        12.15638        -1.18828
H         23.02515        14.52953        -0.78320
H         23.03444        16.65339        -0.75078
H         20.76354        20.31243        -1.12507
H         22.83153        19.00021        -1.48508
