         429
 CSIRO Nanostructure Databank - Neutral Graphene Oxide Data Set
C          1.88871         1.65797        -2.33335
C          1.79461         2.78722        -1.49191
C          3.11831         1.30388        -2.84210
C          2.91329         3.58121        -1.28016
C          1.62382         6.52593        -0.97832
C          1.59726         7.85740        -1.36547
C          2.84226         5.84470        -0.92343
C          2.80027         8.56369        -1.57709
C          1.57695        10.73631        -1.46248
C          1.56474        12.12609        -1.46015
C          2.75879         9.99913        -1.65853
C          2.75807        12.89156        -1.49217
C          1.52140        15.05356        -1.29116
C          1.50281        16.42716        -1.11245
C          2.73757        14.33177        -1.37583
C          2.70492        17.15609        -0.98864
C          2.69085        18.55687        -0.69295
C          4.28171         2.08660        -2.56598
C          4.18005         3.34717        -1.87856
C          5.54705         1.54733        -2.84277
C          5.34133         4.20634        -1.73501
C          4.07197         6.41097        -1.34279
C          4.05529         7.84096        -1.56070
C          5.29881         5.64927        -1.47888
C          5.28442         8.53806        -1.60913
C          3.98790        10.76297        -1.88322
C          4.00084        12.20725        -1.59748
C          5.32633         9.99582        -1.83236
C          5.22835        12.89880        -1.47467
C          3.97818        15.04173        -1.34115
C          3.95729        16.47545        -1.12625
C          5.19948        14.32109        -1.38821
C          5.14535        17.20936        -0.94065
C          3.85176        19.24586        -0.46218
C          5.12425        18.58567        -0.54870
C          6.70121         2.22411        -2.41959
C          6.60502         3.59387        -1.97381
C          7.94607         1.54315        -2.43162
C          7.83991         4.30726        -1.79364
C          6.51863         6.39603        -1.49149
C          6.50576         7.83647        -1.44336
C          7.79698         5.74430        -1.57536
C          7.72043         8.57789        -1.26593
C          6.52024        10.75201        -1.42980
C          6.48978        12.17328        -1.35208
C          7.70354        10.01864        -1.15034
C          7.68325        12.87724        -1.01349
C          6.47626        15.04489        -1.39127
C          6.44349        16.56708        -1.14603
C          7.70249        14.32185        -1.00658
C          7.63845        17.21777        -0.61312
C          6.32238        19.26956        -0.27893
C          7.58611        18.60283        -0.26777
C          9.11620         2.19803        -2.04904
C          9.05103         3.61467        -1.83061
C         10.37334         1.50262        -1.94263
C         10.38853         4.30284        -1.81596
C          8.98661         6.48337        -1.45071
C          8.95367         7.88467        -1.16093
C         10.30152         5.80610        -1.54356
C         10.13448         8.59592        -0.73279
C          8.89517        10.72249        -0.80834
C          8.88503        12.14966        -0.72220
C         10.10252        10.00908        -0.53461
C         10.07052        12.83290        -0.33884
C          8.83534        15.03757        -0.64014
C          8.84224        16.48555        -0.49605
C         10.01702        14.29075        -0.16777
C         10.03264        17.19119        -0.19497
C          8.78605        19.27928         0.04411
C         10.03157        18.60240         0.01774
C         11.50521         2.11437        -1.40964
C         11.32714         3.50975        -0.84050
C         12.77098         1.48942        -1.38029
C         12.63088         4.22929        -0.64009
C         11.47083         6.49240        -0.90690
C         11.33432         7.89710        -0.45570
C         12.47284         5.64317        -0.14692
C         12.47001         8.57010         0.01747
C         11.28412        10.70649        -0.13232
C         11.28263        12.14634        -0.06364
C         12.46824         9.98192         0.17357
C         12.50679        12.84389         0.20305
C         11.30946        15.03219         0.03953
C         11.32200        16.48352        -0.28928
C         12.58597        14.28835         0.11968
C         12.60629        17.23770        -0.18852
C         11.25672        19.28930         0.26847
C         12.53237        18.66349         0.24781
C         13.94973         2.18393        -1.01121
C         13.83624         3.59828        -0.65992
C         15.20547         1.54024        -0.99853
C         15.09826         4.42962        -0.59378
C         13.76407         6.35759         0.11557
C         13.73396         7.82739         0.19681
C         14.94045         5.68640         0.25239
C         14.93254         8.54687         0.72234
C         13.66964        10.68569         0.57235
C         13.69636        12.11628         0.51703
C         14.84299         9.99760         0.93917
C         14.92140        12.79001         0.75500
C         13.77705        14.97059         0.20518
C         13.91790        16.46272        -0.04871
C         15.08526        14.22930         0.34342
C         14.79331        17.13288         1.02062
C         13.67164        19.31559         0.69654
C         15.02029        18.63571         0.71761
C         16.40902         2.18529        -0.60014
C         16.36547         3.63986        -0.31174
C         17.62105         1.51004        -0.42819
C         17.40910         4.18622         0.62211
C         16.00792         6.28366         1.10571
C         15.98114         7.76353         1.45457
C         17.18816         5.43123         1.39820
C         17.17500         8.53555         1.92184
C         16.03682        10.66766         1.29222
C         16.06445        12.08811         1.18161
C         17.21490         9.94310         1.70284
C         17.25798        12.79038         1.58731
C         16.09835        14.96907         1.20890
C         16.05522        16.36820         1.33640
C         17.20578        14.22260         1.68463
C         17.07654        17.06703         2.05410
C         16.01894        19.25726         1.66875
C         17.12181        18.54380         2.11799
C         18.74219         2.09734         0.25878
C         18.56210         3.32613         0.96282
C         19.95367         1.43086         0.50661
C         19.51311         3.80870         1.87750
C         17.91928         5.58859         2.53473
C         18.25490         7.92895         2.58539
C         18.75717         4.45073         3.00604
C         19.55574         8.53642         2.69003
C         18.39162        10.65666         2.08628
C         18.37302        12.08146         2.05647
C         19.58710         9.94526         2.47021
C         19.52743        12.80428         2.70138
C         18.29644        14.91402         2.31956
C         18.05529        16.28332         2.65272
C         19.54273        14.29205         2.48140
C         19.87541        17.34494         2.75428
C         18.34919        19.27091         2.33444
C         19.65297        18.71822         2.32722
C         21.01594         2.06780         1.19966
C         20.86536         3.35014         1.84692
C         22.25422         1.39247         1.31734
C         22.04583         4.13940         2.20842
C         20.96605         6.36499         2.96078
C         20.82263         7.77095         2.75100
C         22.07168         5.58725         2.46531
C         22.06548         8.46058         2.54681
C         20.82129        10.68988         2.58410
C         20.83406        12.07508         2.52281
C         22.09524         9.93996         2.89413
C         22.06432        12.82485         2.36518
C         20.84060        15.04310         2.78081
C         20.83747        16.50153         2.31826
C         22.05499        14.27996         2.26833
C         21.84806        17.08735         1.36153
C         20.80282        19.37946         1.86219
C         21.95308        18.61342         1.47822
C         23.38120         2.07565         1.75939
C         23.30732         3.49694         2.02548
C         24.62762         1.38212         1.82147
C         24.54174         4.22694         2.06881
C         23.29376         6.32803         2.31411
C         23.27335         7.76119         2.43763
C         24.52570         5.62444         2.17352
C         24.57733         8.51206         2.68871
C         23.32603        10.66223         2.39360
C         23.24760        12.09075         2.19723
C         24.51165         9.97088         2.30636
C         24.45880        12.78168         1.75417
C         23.17833        14.99123         1.86442
C         23.18868        16.41118         1.54053
C         24.42180        14.26468         1.54492
C         24.31509        17.07095         1.12182
C         23.08398        19.22047         0.99214
C         24.19182        18.39660         0.39807
C         25.83025         2.06464         1.91463
C         25.81544         3.51299         1.94108
C         27.07671         1.37963         1.77108
C         27.00896         4.20045         1.76661
C         25.85598         6.33610         2.35708
C         25.81094         7.82870         2.14375
C         26.92356         5.67578         1.48645
C         26.96605         8.49935         1.78881
C         25.81275        10.67594         2.22219
C         25.78069        12.16465         2.02431
C         27.03639         9.94969         1.81703
C         26.98497        12.87113         1.55910
C         25.72102        14.99558         1.57159
C         25.65463        16.47448         1.27387
C         26.96137        14.22445         1.29424
C         26.79654        17.09599         0.60213
C         25.49134        19.13487         0.26371
C         26.72225        18.46028         0.19022
C         28.27044         2.06931         1.64976
C         28.27762         3.52238         1.69990
C         29.47754         1.40090         1.25383
C         29.48770         4.21602         1.63443
C         28.24752         6.38661         1.53638
C         28.21801         7.78618         1.51559
C         29.47653         5.66219         1.49464
C         29.41517         8.51628         1.24369
C         28.20388        10.63893         1.52129
C         28.24506        12.12086         1.59354
C         29.42239         9.94453         1.16417
C         29.49083        12.86416         1.13890
C         28.12396        14.91064         0.79410
C         27.95653        16.27902         0.26281
C         29.34225        14.25112         0.64936
C         29.19708        17.00172        -0.25855
C         27.93582        19.13798        -0.19952
C         29.16214        18.47822        -0.32421
C         30.70534         2.02877         1.19897
C         30.79427         3.44193         1.83167
C         31.78322         1.30680         0.55963
C         31.99657         4.25701         1.38813
C         30.66025         6.39698         1.28293
C         30.62801         7.79336         1.05905
C         31.99613         5.75894         1.49611
C         31.80961         8.47825         0.61686
C         30.59713        10.62559         0.74376
C         30.64197        12.07685         0.64989
C         31.77115         9.87206         0.40306
C         31.74355        12.76268         0.18308
C         30.51836        14.92330         0.15341
C         30.48690        16.30227        -0.15285
C         31.76151        14.21364         0.06874
C         31.67591        17.01603        -0.42298
C         30.38532        19.13897        -0.57849
C         31.61234        18.43532        -0.67960
C         33.12679         1.57654         0.77580
C         33.23819         3.68794         1.37064
C         34.29971         1.23737         0.05521
C         34.40644         4.27676         0.76416
C         33.11738         6.40703         0.72274
C         33.00842         7.72237         0.33214
C         34.33645         5.66013         0.48523
C         34.08958         8.36811        -0.50054
C         32.96229        10.54961        -0.06682
C         32.88487        12.00922        -0.43896
C         34.12980         9.87041        -0.34873
C         34.21304        12.69540        -0.23868
C         32.95247        14.91778        -0.20485
C         32.93146        16.32755        -0.44076
C         34.24824        14.18454        -0.17616
C         34.11879        17.06271        -0.74950
C         32.81238        19.11003        -1.00068
C         34.03723        18.43480        -1.05409
C         35.47900         2.02457         0.06250
C         35.53358         3.48455         0.32828
C         36.66067         1.38095        -0.39951
C         36.68620         4.19146        -0.04188
C         35.49147         6.34348         0.01993
C         35.44161         7.71823        -0.34880
C         36.71478         5.62379        -0.08061
C         36.58946         8.37522        -0.76285
C         35.32674        10.56816        -0.79202
C         35.37761        11.93902        -0.77180
C         36.46236         9.74545        -1.38705
C         36.46623        12.69895        -1.41345
C         35.51841        14.89522        -0.55686
C         35.44318        16.39275        -0.80024
C         36.59778        14.15197        -1.23960
C         36.52135        17.00853        -1.59668
C         35.28678        19.22889        -1.35989
C         36.41269        18.40241        -1.94072
C         37.87840         2.03667        -0.61174
C         37.89140         3.54150        -0.67183
C         39.07844         1.37299        -0.91213
C         39.19636         4.11065        -0.11351
C         37.91474         6.33962        -0.33258
C         37.86982         7.71712        -0.67730
C         39.21270         5.64007        -0.18638
C         39.05892         8.43989        -0.98529
C         37.77681        10.48673        -1.44160
C         37.73954        11.90952        -1.78658
C         38.98913         9.81219        -1.34827
C         38.95452        12.68632        -1.98341
C         37.69277        14.82410        -1.79165
C         37.65543        16.26545        -1.93226
C         38.87469        14.07216        -2.23590
C         38.78866        16.97987        -2.55044
C         37.36331        19.00683        -2.73322
C         38.54837        18.31100        -3.13259
C         40.28444         2.09040        -1.08899
C         40.37871         3.44866        -0.80793
C         41.58137         4.19257        -1.03824
C         40.48666         6.36466        -0.51131
C         40.46147         7.86421        -0.82802
C         41.65480         5.55015        -0.90937
C         41.28594         8.28914        -2.02442
C         40.27118        10.49533        -1.72767
C         40.23871        11.97570        -2.06573
C         41.24549         9.57881        -2.39028
C         41.28441        12.63573        -2.84538
C         39.98216        14.70751        -2.86761
C         39.98803        16.17117        -3.09148
C         41.12411        13.93934        -3.23853
C         40.72197        16.77017        -4.20375
C         39.48428        18.86770        -3.99248
C         40.53400        18.08350        -4.54728
O         28.27044        16.35673        -1.19195
O         17.50041         4.40104        -0.85227
O         11.33792         6.47361        -2.36823
O         12.04249        16.91562        -1.51268
O         24.35216        13.35004         0.39538
O         18.59559         3.82656         4.05058
O         15.42046         6.79603         2.37619
O          6.63526        15.98899        -2.49212
O         40.05491        16.89915        -1.81862
O         11.91220         5.52029         1.17332
O         29.20796        12.66703         2.56217
O         34.41154        13.34874         1.04154
O          4.72844        10.40620        -3.10254
O         33.38037         2.39911         1.89157
O         35.94310        15.84404         0.47012
O         18.88640        16.84331         3.63625
O         40.06043         6.17999         0.90299
O         18.01565         6.73945         3.28613
O         40.77769        11.43152        -0.74520
O          2.79640         4.59001        -0.31694
O         10.44495        14.75414         1.18714
O         36.69716        12.24552        -2.79667
O         25.88895        15.95042         2.65396
O         14.82985         8.30293        -0.72416
O         25.96522        11.61265         3.36322
O         21.40109        16.80421         0.00694
H         22.07692        17.19878        -0.60064
O         13.98936        17.07177         2.23133
H         14.50295        17.48182         2.95926
O         23.74941        18.05149        -0.99027
H         24.50408        17.60993        -1.43726
O         20.94645        15.02998         4.24466
H         20.24329        15.63651         4.57697
O         41.05985         8.53099         0.31463
H         40.68726         8.09905         1.11631
O         30.92837         3.24276         3.27740
H         31.75846         2.72995         3.40478
O         36.04961         9.51744        -2.79224
H         36.04695        10.41231        -3.21431
O         10.91619         4.11799        -3.15157
H         11.45059         4.92295        -3.35774
O         14.58456        16.57431        -1.34727
H         13.86030        16.52192        -2.01857
O         34.98668        20.34609        -2.20047
H         34.60867        20.00944        -3.03825
O         15.64915        18.84898        -0.57820
H         15.34812        18.13416        -1.19260
O         20.18182         5.76485         3.88693
H         20.61334         4.95044         4.21811
O         26.44471         5.81171         0.10989
H         27.08518         5.35730        -0.47642
O         33.70495         8.15707        -1.90537
H         34.43133         8.55105        -2.45458
O         32.65510        12.03968        -1.88973
H         31.89680        11.45034        -2.08774
O         15.70322        14.15358        -0.98777
H         15.63946        15.05720        -1.38286
O         26.20287         6.15309         3.76821
H         26.25938         5.18772         3.94032
O         22.21694         9.96727         4.35492
H         23.08532         9.54878         4.57700
O         10.66195         3.38400         0.43136
H         11.01185         4.13255         1.01102
O         32.29171         6.00507         2.92627
H         31.68869         5.42358         3.44325
O         15.24558         4.92005        -1.96306
H         16.17575         5.22907        -2.05593
O         24.73156         8.51131         4.15859
H         25.23017         7.69174         4.39833
O         39.27002         3.73619         1.27770
H         39.85312         4.39870         1.71548
O         19.26184        12.74106         4.16187
H         20.00009        13.23485         4.59492
O         37.87182         3.91163        -2.08540
H         37.06716         3.52297        -2.48785
H          1.00184         1.03891        -2.52413
H          0.85579         3.02626        -0.97652
H          3.23799         0.37732        -3.42075
H          0.70293         6.00644        -0.68488
H          0.62918         8.36940        -1.42242
H          0.61710        10.22090        -1.32924
H          0.59482        12.62900        -1.35763
H          0.56250        14.52292        -1.35518
H          0.54224        16.95608        -1.03206
H          1.71937        19.06711        -0.61806
H          5.63011         0.54594        -3.28917
H          3.82490        20.31330        -0.20006
H          7.96763         0.47745        -2.70325
H          6.28416        20.33868        -0.02388
H         10.42702         0.46141        -2.29947
H          8.75837        20.35536         0.26858
H         12.85612         0.44279        -1.71571
H         11.20843        20.35579         0.53531
H         15.24837         0.46883        -1.25017
H         13.59623        20.36737         1.01306
H         17.69195         0.45202        -0.72450
H         16.08584        20.35741         1.64409
H         20.12615         0.42603         0.09346
H         18.28283        20.35448         2.13857
H         22.34069         0.34878         0.98235
H         20.78262        20.45944         1.65124
H         24.62760         0.29005         1.68994
H         23.16886        20.31786         0.98269
H         27.06700         0.28372         1.67562
H         25.44887        20.19679        -0.02146
H         29.39679         0.34973         0.93569
H         27.89531        20.22715        -0.34740
H         31.50058         0.52492        -0.16263
H         30.38871        20.23125        -0.70889
H         34.31288         0.30900        -0.53757
H         32.79054        20.18908        -1.21132
H         36.62960         0.28621        -0.51924
H         35.66098        19.66014        -0.38852
H         39.08087         0.27785        -1.01756
H         37.23132        20.05835        -3.02877
H         41.17523         1.55269        -1.44963
H         42.46727         3.64004        -1.38975
H         42.59860         6.06621        -1.13703
H         41.95508         7.57665        -2.53001
H         41.87663         9.95768        -3.20854
H         42.23081        12.11045        -3.03291
H         41.94249        14.43634        -3.77822
H         41.39826        16.14224        -4.80101
H         39.33567        19.89358        -4.35878
H         41.14227        18.52185        -5.35140
