         349
 CSIRO Nanostructure Databank - Neutral Graphene Oxide Data Set
C          1.19568         1.98974        -0.15426
C          1.16129         3.38184        -0.02037
C          2.39549         1.32160        -0.36657
C          2.34344         4.14817        -0.12860
C          1.10532         6.34568        -0.01428
C          1.07409         7.71259        -0.01497
C          2.34185         5.61145        -0.03836
C          2.27834         8.49917        -0.01942
C          1.07777        10.68351        -0.31370
C          1.08993        12.04038        -0.31924
C          2.26738         9.88958        -0.10137
C          2.31604        12.81740         0.09231
C          1.19439        15.02183        -0.51178
C          1.25314        16.39330        -0.75951
C          2.36478        14.27933        -0.30267
C          2.48502        17.06149        -0.77046
C          2.53685        18.48204        -1.08276
C          3.61400         2.04576        -0.45349
C          3.56037         3.47028        -0.36709
C          4.85690         1.34749        -0.50634
C          4.79713         4.24463        -0.52745
C          3.54390         6.32526         0.02349
C          3.54999         7.78251         0.09018
C          4.81547         5.65200        -0.09924
C          4.74209         8.45087         0.24996
C          3.56484        10.59792        -0.22373
C          3.58219        12.08299        -0.30869
C          4.82256         9.94718         0.31203
C          4.87946        12.78801        -0.17776
C          3.62416        14.92878        -0.30287
C          3.68768        16.33721        -0.52845
C          4.86284        14.16187        -0.16978
C          4.94974        17.04020        -0.58203
C          3.68758        19.17896        -1.04327
C          4.97267        18.55807        -0.56406
C          6.10774         1.99729        -0.39415
C          6.12706         3.47724        -0.51524
C          7.29843         1.29685        -0.20225
C          7.30098         4.22557        -0.07984
C          6.01727         6.30821         0.14542
C          5.96632         7.71266         0.71237
C          7.26343         5.59083         0.13375
C          7.26706         8.49062         0.58167
C          6.09442        10.43807        -0.43219
C          6.13282        12.01086        -0.62472
C          7.33013         9.81267         0.22997
C          7.40551        12.66782        -0.15437
C          6.14065        14.91654        -0.13377
C          6.15456        16.35402        -0.50219
C          7.41924        14.15460        -0.13186
C          7.42008        17.03270        -0.59840
C          6.18936        19.12760        -1.30556
C          7.46515        18.43697        -0.87883
C          8.56400         1.98127         0.07811
C          8.54752         3.47285         0.19707
C          9.87024         1.31458        -0.06157
C          9.79599         4.22717        -0.12797
C          8.50484         6.26105         0.61985
C          8.48209         7.72922         0.96987
C          9.80182         5.63710         0.30216
C          9.79938         8.47079         1.18377
C          8.59353        10.55362         0.35383
C          8.57809        12.01074         0.16342
C          9.74646         9.91119         0.73048
C          9.79143        12.78753         0.36832
C          8.68078        14.82114        -0.63132
C          8.65546        16.32694        -0.45303
C          9.88936        14.13677        -0.02660
C          9.85314        17.02378        -0.37769
C          8.66208        19.12052        -0.86101
C          9.89351        18.46421        -0.51294
C         11.08266         1.96927        -0.18668
C         11.07616         3.47407        -0.41414
C         12.27880         1.18319         0.02360
C         12.29187         4.32773        -0.28416
C         10.99975         6.37096         0.35170
C         11.02889         7.76867         0.63797
C         12.23828         5.66106         0.09348
C         12.24841         8.51941         0.53968
C         10.99581        10.63291         1.06251
C         10.99253        12.15474         0.91606
C         12.28932         9.94422         0.83927
C         12.28090        12.85005         0.86433
C         11.09929        14.84504         0.08185
C         11.13095        16.28275        -0.26997
C         12.28887        14.19933         0.55265
C         12.37991        17.07188        -0.04648
C         11.07596        19.18148        -0.35497
C         12.27852        18.54511         0.27931
C         13.55514         1.57678        -0.41248
C         13.56131         3.75438        -0.62541
C         14.83677         1.22456         0.02436
C         14.78266         4.25770        -0.25518
C         13.49957         6.40797         0.24299
C         13.44099         7.87504         0.18904
C         14.80709         5.68788         0.13214
C         14.67486         8.64262         0.02224
C         13.49064        10.64863         0.88572
C         13.51432        12.09338         1.35688
C         14.72850        10.02166         0.51603
C         14.80072        12.80722         0.99212
C         13.49394        15.00273         0.86926
C         13.59639        16.40445         0.47305
C         14.79612        14.26684         1.14152
C         14.78783        17.09990         0.51946
C         13.61276        19.21067         0.03257
C         14.77844        18.53170         0.19083
C         16.03517         2.03076        -0.15171
C         16.02576         3.51264        -0.31764
C         17.23732         1.40791         0.13391
C         17.21934         4.22712        -0.19669
C         16.02782         6.39302        -0.43716
C         16.00935         7.89369        -0.20974
C         17.27735         5.66035        -0.01603
C         17.21284         8.56217         0.25176
C         15.96775        10.68994         0.47685
C         16.00419        12.13785         0.69238
C         17.19504         9.94400         0.41724
C         17.22712        12.85439         0.63127
C         16.03654        15.03150         0.97681
C         16.04080        16.39782         0.77982
C         17.27794        14.23468         1.24997
C         17.30893        17.12862         0.73062
C         16.08394        19.26860        -0.01103
C         17.32686        18.52320         0.42260
C         18.52872         2.15354         0.34797
C         18.51208         3.49900        -0.38747
C         19.78661         1.40673        -0.02749
C         19.73947         4.27744         0.01666
C         18.42273         6.29902         0.42101
C         18.38315         7.76514         0.69895
C         19.68380         5.55206         0.50338
C         19.66314         8.50696         1.01473
C         18.49791        10.65830         0.36483
C         18.48668        12.17306         0.30204
C         19.75813         9.96019         0.71260
C         19.81921        12.91850         0.36859
C         18.54809        14.99449         0.99875
C         18.52837        16.44749         0.93672
C         19.72231        14.30686         0.93838
C         19.77181        17.15059         0.83896
C         18.52636        19.21653         0.39097
C         19.77123        18.55686         0.59385
C         20.95664         2.07334        -0.22823
C         21.02337         3.58683        -0.34865
C         22.20411         1.40955        -0.52565
C         22.27915         4.15638         0.25853
C         20.92279         6.20518         1.03198
C         20.93174         7.69838         1.20114
C         22.27369         5.45248         1.03976
C         22.24592         8.43493         1.21474
C         20.94487        10.65413         0.88514
C         21.00936        12.09807         0.85138
C         22.22317         9.93590         1.17195
C         22.22065        12.75196         1.03444
C         20.99100        15.01265         1.20561
C         21.01881        16.47254         0.97869
C         22.25203        14.21835         1.30228
C         22.23473        17.15076         0.86937
C         21.00471        19.23069         0.44744
C         22.22630        18.55094         0.53985
C         23.39452         2.10532        -0.50086
C         23.43670         3.46527         0.05573
C         24.61178         1.47703        -0.94501
C         24.75819         4.11274         0.28743
C         23.45856         6.34047         0.64483
C         23.47493         7.70846         0.77730
C         24.74180         5.60977         0.43230
C         24.69660         8.49958         0.58030
C         23.48867        10.65599         0.88546
C         23.48212        12.04377         0.92975
C         24.70266         9.91058         0.67773
C         24.69124        12.79630         0.62090
C         23.61005        14.92372         1.34966
C         23.53344        16.45102         1.06465
C         24.65733        14.17565         0.55387
C         24.76096        17.15939         0.47886
C         23.44242        19.23136         0.17811
C         24.64081        18.56878         0.02291
C         25.82957         2.09824        -0.90802
C         26.04052         3.40261        -0.17250
C         27.02759         1.44705        -1.37545
C         27.02905         4.29554        -0.93160
C         25.80709         6.43692        -0.25094
C         25.92947         7.82577         0.32804
C         27.13198         5.74970        -0.53956
C         27.15958         8.48295         0.36617
C         25.92836        10.62569         0.45594
C         25.92591        12.04936         0.36331
C         27.16972         9.91967         0.35797
C         27.14197        12.73793         0.19555
C         25.79203        14.86961        -0.14812
C         25.86551        16.36524        -0.02939
C         27.11905        14.21971         0.20530
C         26.97121        17.03921        -0.79892
C         25.83176        19.23214        -0.41434
C         27.00740        18.54241        -0.64746
C         28.22258         2.11041        -1.49559
C         28.25604         3.60377        -1.42757
C         29.43514         1.39227        -1.82872
C         29.58621         4.29624        -1.24203
C         28.46373         6.37143        -0.22585
C         28.42752         7.66114         0.61575
C         29.65669         5.45740        -0.29127
C         29.68811         8.49058         0.45302
C         28.37683        10.64302         0.11893
C         28.38315        12.05364         0.06440
C         29.62828         9.87333        -0.06539
C         29.62728        12.81121        -0.15048
C         28.37628        14.98433        -0.08189
C         28.31428        16.38122        -0.54965
C         29.62643        14.22609        -0.28018
C         29.48137        17.07578        -0.79901
C         28.23138        19.20771        -0.92426
C         29.43456        18.51340        -1.04311
C         30.64763         1.98541        -1.78378
C         30.80830         3.40084        -1.36554
C         31.96892         3.68522        -0.50862
C         30.83126         5.65138         0.39297
C         30.90793         7.97037         0.78730
C         31.96338         4.75417         0.32025
C         32.13038         8.73583         0.79214
C         30.93440        10.65622        -0.16684
C         30.86884        12.13736        -0.24153
C         32.14661        10.02431         0.37194
C         32.04729        12.86111        -0.48501
C         30.81028        14.94896        -0.56473
C         30.76962        16.40248        -0.76185
C         32.02194        14.23624        -0.66593
C         31.91689        17.14793        -0.97341
C         30.66281        19.21179        -1.27080
C         31.86222        18.54598        -1.23063
O          6.91136        14.69503         1.12929
O         15.32148         8.55468        -1.31916
O         18.48751        11.37345        -0.94610
O         30.47261         4.39472        -2.39767
O         13.94640        14.75488         2.25811
O         14.34732         6.00730         1.46435
O         27.86119         6.54235        -1.54026
O         21.51033        14.56931         2.53399
O         27.82927        14.82579         1.31259
O         18.71286         8.18113         2.07970
O         12.04857        16.64142        -1.40159
O          8.30576         6.72353         2.03610
O          3.60798        11.28119        -1.54324
O         13.51993         2.59077        -1.38896
O         22.35236         9.21130         2.45448
O         20.75172         6.81626         2.35237
O         10.22462         3.94100        -1.51593
O          8.53768         2.72016         1.43926
O         10.83917        11.46857         2.23375
O          5.53512         3.96575        -1.76214
O         25.03321         4.76266         1.58340
O         24.46174        17.12675         1.94856
O         27.22949         4.13167        -2.35785
O         31.02524         6.68085         1.32112
O         30.32213        10.03452        -1.34995
O         17.29750        14.00552         2.70934
H         16.39622        13.72780         2.98292
O          5.76639         7.58522         2.17099
H          6.57603         7.13138         2.52035
O         26.71283        16.85266        -2.24531
H         26.52659        15.88944        -2.37947
O          5.14770        18.95436         0.83000
H          4.42968        18.54071         1.35337
O         24.07246        14.77986         2.71395
H         23.30498        14.97944         3.29711
O         18.58316         3.18012        -1.82016
H         18.04973         3.84711        -2.30356
O         13.46412        12.06736         2.81478
H         13.40298        13.00662         3.10904
O         12.04584        18.59188         1.73180
H         11.96943        19.53335         1.99367
O          2.35234        12.80557         1.55682
H          1.58024        13.31268         1.88350
O          6.12836        12.25123        -2.06856
H          5.22037        12.00017        -2.37350
O         16.03137        20.55911         0.61453
H         15.98831        20.42568         1.58354
O         28.33321         7.20404         1.99047
H         28.32986         7.98442         2.58264
O          6.03506         9.81903        -1.73216
H          6.52207        10.40140        -2.35986
O          4.92998        10.33275         1.70480
H          5.22812         9.54558         2.21988
O         26.77527         3.02090         1.03011
H         26.40034         3.54203         1.77993
O         25.60893        14.53480        -1.59024
H         24.67981        14.73603        -1.83330
O         22.52386         5.05012         2.40888
H         22.14745         5.75795         2.98545
O         25.21547         6.66516        -1.57011
H         25.95487         6.91107        -2.17265
O         21.17544         3.84890        -1.78932
H         20.35724         3.48547        -2.21365
O         20.19755        13.22020        -1.02605
H         19.78309        12.51297        -1.57926
O          8.73076        14.58974        -2.06929
H          9.54146        15.01833        -2.41734
O         10.01419         8.55948         2.62322
H          9.69332         7.71172         3.00828
O         15.95760         6.16631        -1.87633
H         15.56242         6.98044        -2.27222
O          6.02737        18.96178        -2.72253
H          6.06130        18.00435        -2.92662
O         18.59056         2.44676         1.77504
H         18.68420         1.60056         2.25954
H          0.26032         1.41820        -0.07553
H          0.19641         3.86964         0.17064
H          2.41386         0.22512        -0.44259
H          0.15347         5.79810        -0.03364
H          0.10121         8.22288        -0.02924
H          0.12802        10.16484        -0.51267
H          0.14830        12.57639        -0.50732
H          0.21335        14.52783        -0.49466
H          0.32837        16.95761        -0.94520
H          1.59635        18.97229        -1.37714
H          4.83324         0.24717        -0.49099
H          3.69920        20.25160        -1.28679
H          7.28791         0.19652        -0.22858
H          6.25705        20.22528        -1.10930
H          9.87791         0.21727         0.03516
H          8.67964        20.19953        -1.07533
H         12.16988         0.25287         0.60165
H         11.06208        20.27495        -0.48605
H         14.94891         0.31009         0.62777
H         13.64357        20.29117        -0.17917
H         17.22058         0.34269         0.41869
H         16.19019        19.46745        -1.11499
H         19.76977         0.30477        -0.05388
H         18.51913        20.29022         0.15294
H         22.19974         0.33738        -0.77438
H         21.00435        20.30284         0.20151
H         24.53368         0.47658        -1.39835
H         23.37583        20.29510        -0.09520
H         26.98023         0.37082        -1.60468
H         25.81230        20.32843        -0.51519
H         29.34799         0.32439        -2.07997
H         28.24044        20.30794        -0.96119
H         31.56049         1.40781        -1.99368
H         32.80040         2.96488        -0.49259
H         32.81771         4.96229         0.97883
H         33.03381         8.26518         1.20270
H         33.05457        10.62981         0.50262
H         33.00387        12.33019        -0.58136
H         32.96110        14.75642        -0.89354
H         32.90595        16.67094        -0.95488
H         30.63016        20.29371        -1.46381
H         32.80214        19.09025        -1.39782
