         324
 CSIRO Nanostructure Databank - Neutral Graphene Oxide Data Set
C          1.18622         2.06573        -0.89020
C          1.15596         3.45762        -0.75764
C          2.37941         1.36879        -0.74600
C          2.33082         4.17695        -0.44432
C          1.17487         6.38346        -0.26419
C          1.19990         7.81238        -0.19218
C          2.33398         5.64105        -0.35630
C          2.35586         8.53166        -0.37208
C          1.16493        10.74759        -0.34856
C          1.12277        12.10562        -0.33200
C          2.39777         9.98834        -0.34260
C          2.34327        12.90017        -0.16100
C          1.20220        15.12453        -0.41798
C          1.20748        16.53249        -0.56313
C          2.36849        14.36313        -0.45075
C          2.38467        17.22125        -0.81925
C          2.46432        18.65591        -0.92765
C          3.58273         2.06382        -0.45082
C          3.54176         3.47860        -0.28581
C          4.82157         1.36971        -0.37230
C          4.76499         4.20026         0.21963
C          3.61217         6.33509        -0.37267
C          3.61870         7.79465        -0.76545
C          4.79066         5.66209        -0.15809
C          4.88105         8.51919        -0.37284
C          3.62043        10.65432        -0.40525
C          3.64661        12.12287        -0.24865
C          4.88839         9.93042        -0.38943
C          4.87556        12.84526        -0.69228
C          3.62951        15.00740        -0.66937
C          3.61513        16.44249        -0.96291
C          4.86923        14.33287        -0.65179
C          4.96316        17.22056        -0.77554
C          3.64671        19.34190        -0.85517
C          4.91038        18.68777        -0.59084
C          6.05506         2.06203        -0.25697
C          6.05685         3.48616        -0.09104
C          7.28673         1.37673        -0.35572
C          7.26417         4.19490        -0.04274
C          6.05895         6.36036        -0.10498
C          6.07720         7.79944        -0.15808
C          7.25914         5.64579         0.03176
C          7.30467         8.50131         0.05388
C          6.12570        10.62504        -0.28691
C          6.16233        12.06393        -0.64234
C          7.33095         9.92739        -0.03871
C          7.44823        12.81486        -0.47957
C          6.09643        15.04713        -0.51230
C          6.09993        16.43648        -0.33483
C          7.39419        14.32492        -0.39851
C          7.24011        17.13830         0.27593
C          6.04830        19.37339        -0.25396
C          7.24768        18.67570         0.24551
C          8.51565         2.06870        -0.26941
C          8.50889         3.49591        -0.09990
C          9.75278         1.38866        -0.36917
C          9.73985         4.20096         0.04251
C          8.50305         6.34450         0.18521
C          8.51212         7.76665         0.26644
C          9.72803         5.62314         0.23296
C          9.73502         8.45851         0.54811
C          8.59030        10.62703         0.14495
C          8.62517        12.08009         0.06200
C          9.72872         9.90226         0.52783
C          9.74340        12.80508         0.41986
C          8.53147        15.04527         0.21953
C          8.52123        16.41425         0.41917
C          9.66590        14.25912         0.70956
C          9.73137        17.15663         0.69763
C          8.55898        19.31020         0.22470
C          9.73935        18.59791         0.48348
C         10.97977         2.07728        -0.26647
C         10.97428         3.49850        -0.01467
C         12.21087         1.39490        -0.41059
C         12.20622         4.19584         0.17423
C         10.95546         6.31385         0.48227
C         10.93535         7.72462         0.71195
C         12.17603         5.57609         0.50150
C         12.15020         8.39874         1.23666
C         11.01709        10.60086         0.69618
C         11.02909        12.13227         0.61636
C         12.14172         9.89535         1.39323
C         12.16998        12.84932         1.15755
C         10.89316        15.02995         1.18868
C         10.94310        16.48086         0.92910
C         12.16890        14.27526         1.38759
C         12.20782        17.15483         0.82152
C         10.98950        19.26476         0.43224
C         12.21363        18.57118         0.54224
C         13.44208         2.08295        -0.34181
C         13.45069         3.48274        -0.03324
C         14.68033         1.41041        -0.55948
C         14.69175         4.15885        -0.02522
C         13.43865         6.26444         0.82394
C         13.46759         7.73993         1.04829
C         14.71329         5.55316         0.47267
C         14.63953         8.43632         1.08009
C         13.44201        10.64301         1.59310
C         13.42930        12.12542         1.41946
C         14.76065         9.84205         1.62865
C         14.65789        12.82379         0.92810
C         13.51047        15.04708         1.28176
C         13.45024        16.46918         0.89352
C         14.73246        14.28884         0.96544
C         14.66834        17.12146         0.58497
C         13.44591        19.24173         0.36335
C         14.67113        18.54462         0.35417
C         15.89524         2.09019        -0.55653
C         15.89684         3.48813        -0.32296
C         17.17827         1.32223        -0.82895
C         17.17929         4.23183        -0.37849
C         15.89473         6.40490         0.16464
C         15.90622         7.83003         0.58844
C         17.18627         5.69335        -0.08615
C         17.22074         8.48931         0.84621
C         15.97221        10.58949         1.07909
C         15.93597        12.02406         0.76198
C         17.19729         9.93610         0.99972
C         17.18808        12.79215         0.68036
C         15.91435        14.93518         0.61569
C         15.91037        16.39625         0.50172
C         17.14148        14.17201         0.50493
C         17.09429        17.09843         0.27101
C         15.89853        19.22112         0.12736
C         17.12120        18.52951         0.10691
C         18.47894         2.07202        -0.58826
C         18.47398         3.50343        -0.35641
C         19.66738         1.37300        -0.59159
C         19.65019         4.21853        -0.28030
C         18.41232         6.33437         0.47240
C         18.39939         7.79543         0.71926
C         19.70778         5.60644         0.27468
C         19.70389         8.43310         1.01729
C         18.43316        10.67748         0.92353
C         18.43821        12.07119         0.77064
C         19.70318         9.95474         1.12214
C         19.68720        12.79079         0.75509
C         18.41477        14.88184         0.25644
C         18.37140        16.37156         0.12593
C         19.69645        14.19807         0.57005
C         19.61460        17.15468         0.39142
C         18.35880        19.21341        -0.12969
C         19.60942        18.57786        -0.02856
C         20.94496         2.03573        -0.52092
C         20.90934         3.51774        -0.58214
C         22.15780         1.37167        -0.56364
C         22.18472         4.29220        -0.54113
C         20.94596         6.42667         0.23381
C         20.96934         7.75883         0.61379
C         22.16811         5.78073        -0.28080
C         22.21265         8.53178         0.67661
C         20.97551        10.68496         0.97682
C         20.92119        12.07841         0.91348
C         22.22104         9.94616         0.93721
C         22.15580        12.86306         1.06569
C         20.90408        14.92850         0.53124
C         20.90247        16.40873         0.49532
C         22.15618        14.28440         0.68602
C         22.15599        17.10624         0.15383
C         20.84171        19.20905        -0.24241
C         22.10079        18.51839        -0.20098
C         23.42913         2.04889        -0.44902
C         23.40399         3.50914        -0.17457
C         24.64467         1.39571        -0.48431
C         24.70338         4.23449        -0.01175
C         23.46711         6.51209        -0.09112
C         23.45665         7.87685         0.48781
C         24.74881         5.72892        -0.14714
C         24.68053         8.55839         0.69288
C         23.46615        10.64092         1.00031
C         23.47747        12.11679         1.15013
C         24.69526         9.94422         0.94337
C         24.67888        12.88402         0.76684
C         23.37501        14.98455         0.54154
C         23.34720        16.40008         0.22795
C         24.62066        14.24805         0.53839
C         24.59741        17.06731        -0.20284
C         23.27409        19.20656        -0.51377
C         24.55155        18.51991        -0.64745
C         25.92730         2.07425        -0.36242
C         25.94688         3.48110        -0.18022
C         27.13831         1.34476        -0.39869
C         27.20557         4.17188         0.12601
C         26.00575         6.41421         0.24652
C         25.96190         7.80978         0.76626
C         27.25130         5.62536         0.49919
C         27.29595         8.51444         0.84821
C         25.99975        10.66876         1.04021
C         25.97189        12.16487         0.85819
C         27.28943         9.98222         0.72720
C         27.15751        12.79250         0.20380
C         25.90046        15.01471         0.46275
C         25.90311        16.49526         0.25209
C         27.12755        14.27670         0.04135
C         27.21069        17.26053        -0.00550
C         25.83332        19.21897        -0.83483
C         27.04497        18.54653        -0.79697
C         28.43505         2.02132        -0.50127
C         28.46446         3.51607        -0.31231
C         29.73525         1.33460        -0.28418
C         29.75280         4.16520         0.16018
C         28.51122         6.39741         0.37577
C         28.52691         7.75874         0.49344
C         29.77300         5.69534        -0.08488
C         29.77128         8.51016         0.32323
C         28.45965        10.65401         0.41997
C         28.46388        12.09685         0.20618
C         29.72672         9.92795         0.24848
C         29.60345        12.80799        -0.10377
C         28.38213        15.00116        -0.24218
C         28.35916        16.38237        -0.48102
C         29.56961        14.23142        -0.43270
C         29.51315        17.02499        -0.99307
C         28.23725        19.14046        -1.27273
C         29.46009        18.42721        -1.34214
C         30.90542         2.00012        -0.20523
C         30.98833         3.49267        -0.47639
C         32.23586         4.21407        -0.00859
C         30.99743         6.33035         0.61687
C         31.00980         7.81884         0.27953
C         32.24694         5.51145         0.34250
C         32.18586         8.55022         0.11678
C         30.93161        10.64521         0.05143
C         30.96445        12.16375         0.06944
C         32.14162         9.94201        -0.01096
C         31.97011        12.75681        -0.88429
C         30.72282        14.86569        -0.94967
C         30.70301        16.26984        -1.24085
C         31.86824        14.03713        -1.29172
C         31.84427        16.95467        -1.74270
C         30.62198        19.04749        -1.85237
C         31.79921        18.31568        -2.02749
O         13.42990        11.53193         2.77468
O         11.82808         9.05609         2.53032
O         22.82318        12.61659         2.35763
O         23.88281         3.85041         1.17212
O         12.91418        14.72397         2.57701
O         15.69289         7.44786        -0.84100
O         20.20345        16.95433         1.71435
O         25.63781         6.26958        -1.17191
O         26.16945        11.58794         2.18413
O         18.45332        15.54138        -1.08462
O         28.44724         3.01236        -1.66708
O          6.92679        17.90787         1.48082
O         22.78229         6.50943        -1.39455
O         24.55278        17.35865        -1.62327
O          9.89268        14.57442         2.14775
O         17.25651         5.24844        -1.47461
O         21.60091         3.98342        -1.83096
O          5.46463        12.30743        -1.91562
O          3.13088        12.57406         1.04644
O         11.44748        11.25914        -0.53094
O         25.95018        15.93796         1.60637
O         26.62549         7.97989         2.05274
O         14.26148         5.59741         1.86621
O         19.72342         9.08423         2.32162
O          4.45545        16.82370        -2.08433
O         19.01990         5.61359         1.59645
O          7.79636        13.63067        -1.64322
O         26.78359        13.37548        -1.09114
O         27.23652         4.62873         1.57651
O         15.03240        12.29456        -0.39440
O         15.08675         9.62811         3.03110
H         14.65298        10.34826         3.54735
O         31.41517        12.54276         1.41570
H         30.82105        12.10473         2.06156
O         30.98569         3.64246        -1.92402
H         30.13217         3.25071        -2.24680
O          3.62047         7.80669        -2.24413
H          2.79558         7.36357        -2.53667
O         29.85139         5.96940        -1.49664
H         30.47220         5.31350        -1.90941
O         27.66147        17.76308         1.28917
H         27.40025        17.09156         1.96304
O         17.16483         0.86958        -2.19745
H         17.20071         1.65700        -2.77926
O         30.82190         6.30362         2.05384
H         30.70276         5.35633         2.30927
O         29.83319         3.89800         1.58245
H         28.94851         4.13158         1.96999
O          4.66129         4.17961         1.69545
H          4.63445         3.23844         1.97092
H          0.25984         1.52333        -1.12522
H          0.20571         3.98906        -0.90398
H          2.40553         0.27700        -0.87083
H          0.19913         5.88409        -0.19101
H          0.24829         8.32243         0.01277
H          0.21812        10.20160        -0.46173
H          0.16317        12.61888        -0.48753
H          0.24067        14.63155        -0.21943
H          0.26216        17.08395        -0.45986
H          1.52172        19.21651        -1.01561
H          4.83157         0.27789        -0.50467
H          3.63672        20.44138        -0.88769
H          7.28844         0.28663        -0.50092
H          6.04624        20.47427        -0.25124
H          9.75724         0.30133        -0.53489
H          8.62741        20.36593        -0.07728
H         12.20546         0.31447        -0.61679
H         11.00579        20.34830         0.24286
H         14.66707         0.32843        -0.75691
H         13.44303        20.32720         0.18494
H         17.17610         0.39365        -0.19874
H         15.88651        20.30941        -0.03176
H         19.64995         0.27724        -0.69221
H         18.32154        20.28695        -0.36874
H         22.16491         0.27442        -0.65311
H         20.85191        20.27351        -0.52215
H         24.65937         0.30674        -0.64443
H         23.24486        20.29751        -0.65135
H         27.11015         0.24559        -0.40794
H         25.80490        20.25093        -1.21966
H         29.70987         0.24477        -0.12862
H         28.19553        20.15800        -1.69161
H         31.83714         1.44158        -0.02613
H         33.18978         3.66765        -0.08697
H         33.21047         5.96703         0.62421
H         33.15934         8.04078         0.10242
H         33.08738        10.49076        -0.11649
H         32.84081        12.15927        -1.18907
H         32.65142        14.45746        -1.93847
H         32.78502        16.41172        -1.90316
H         30.59220        20.11465        -2.11482
H         32.69800        18.81802        -2.41157
