         480
 CSIRO Nanostructure Databank - Neutral Graphene Oxide Data Set
C         37.64423        49.82573         0.16567
C         36.43013        50.49137         0.10783
C         37.58900        52.58851        -0.19853
C         36.40242        51.88314        -0.07546
C         40.21268        48.43160         0.29377
C         40.14754        49.83384         0.10521
C         38.87067        50.52318         0.04261
C         40.09088        52.66522        -0.27312
C         38.84288        51.93247        -0.14336
C         40.09689        54.06708        -0.45772
C         42.64955        48.47089         0.25280
C         41.42132        47.77251         0.36842
C         42.61870        49.87633         0.03829
C         41.36216        50.55759        -0.02543
C         42.56453        52.70308        -0.35855
C         41.33695        51.98190        -0.21998
C         42.53243        54.11071        -0.53062
C         41.28022        54.76735        -0.57821
C         45.12314        45.66451         0.63553
C         43.95808        46.37329         0.63823
C         45.11458        48.50142         0.20702
C         43.91916        47.79443         0.37382
C         45.09326        49.90276        -0.09647
C         43.84730        50.59723        -0.13256
C         45.04879        52.71785        -0.53563
C         43.82963        52.00959        -0.33851
C         45.01660        54.16067        -0.66091
C         43.77272        54.85134        -0.64583
C         44.94396        56.97558        -0.85921
C         43.76354        56.25972        -0.74711
C         47.65868        44.13647         0.52402
C         47.57145        45.56917         0.40922
C         46.39497        46.30153         0.45581
C         47.58807        48.43824        -0.18644
C         46.42968        47.82194         0.54011
C         47.54215        49.82895        -0.57184
C         46.29520        50.61751        -0.40908
C         47.53828        52.73496        -1.08688
C         46.28380        52.00201        -0.62344
C         47.51605        54.21586        -0.79282
C         46.22314        54.90803        -0.76283
C         47.46939        57.05807        -1.11593
C         46.18078        56.31383        -0.84601
C         47.48846        58.52858        -0.78662
C         50.08243        44.26303         0.90169
C         48.86702        43.51146         0.68612
C         50.08247        45.63265         0.69972
C         48.86026        46.25216         0.13757
C         50.15844        48.44018        -0.14427
C         48.85641        47.69322        -0.27224
C         50.16265        49.95377        -0.28965
C         48.87513        50.61839        -0.64234
C         49.95503        52.80333        -0.32893
C         48.82406        52.09466        -0.60430
C         50.03588        54.26170        -0.68146
C         48.67618        54.91206        -0.65291
C         49.94910        57.08423        -0.67538
C         48.63951        56.39784        -0.37156
C         49.92678        58.48204        -1.24414
C         48.65285        59.18796        -0.81664
C         52.73069        41.59449         1.43468
C         51.57363        42.19390         1.10739
C         52.52179        44.46763         1.84557
C         51.26178        43.58758         1.48963
C         52.45742        45.85185         1.39631
C         51.25638        46.45151         0.93386
C         52.46650        48.65211         0.95866
C         51.24815        47.82681         0.60538
C         52.44828        50.11442         0.60855
C         51.26948        50.74092         0.30388
C         52.40979        52.97959         0.44521
C         51.09032        52.22412         0.49266
C         52.39014        54.32288         0.28792
C         51.04924        55.03550         0.20279
C         52.36100        57.18424        -0.33278
C         51.13382        56.46187        -0.33366
C         52.33889        58.59450        -0.50636
C         51.17530        59.26156        -0.91856
C         52.34675        61.39395        -1.21661
C         51.21833        60.62973        -1.32301
C         55.14261        40.10594         2.19742
C         55.10250        41.57390         2.36346
C         53.73769        42.27774         2.33424
C         55.00813        44.41273         1.73371
C         53.82094        43.75773         1.95243
C         54.99965        45.88634         1.53786
C         53.71310        46.62247         1.34811
C         54.99844        48.71988         0.39138
C         53.69501        47.86884         0.46057
C         54.90382        50.17153         0.84850
C         53.69540        50.83163         0.85166
C         54.91002        53.05437         0.82660
C         53.61355        52.31765         1.11110
C         54.87295        54.42063         0.75505
C         53.54970        55.18276         0.75326
C         54.85111        57.33222         0.10916
C         53.66122        56.43894        -0.17270
C         54.85239        58.68429        -0.13963
C         53.55313        59.39004        -0.23503
C         54.84725        61.57040        -0.69242
C         53.54404        60.87417        -0.55137
C         54.87023        62.95183        -0.89348
C         57.58480        40.08409         1.69351
C         56.28219        39.45608         1.87016
C         57.65487        41.53897         1.84449
C         56.38993        42.30447         2.12474
C         57.44810        44.46673         1.47534
C         56.30637        43.74751         1.74446
C         57.42904        45.88750         1.19658
C         56.22354        46.60459         1.13515
C         57.43133        48.73081         0.98917
C         56.21741        47.99934         0.92445
C         57.41758        50.19912         1.00443
C         56.17704        50.90245         0.93720
C         57.41478        53.03496         0.83043
C         56.17537        52.32826         0.88492
C         57.42562        54.48406         0.68892
C         56.13475        55.18910         0.80868
C         57.36792        57.35758         0.13359
C         56.11523        56.68280         0.49430
C         57.32875        58.74522        -0.19312
C         56.08502        59.44145        -0.26172
C         57.31010        61.54749        -0.72647
C         56.06917        60.84209        -0.55265
C         57.30296        62.98677        -0.83446
C         56.07393        63.65918        -0.91429
C         59.52519        37.32783        -0.01584
C         58.51578        37.90583         0.68544
C         60.01043        39.68278         1.25428
C         58.64357        39.23940         1.26386
C         60.10876        41.79917         1.58939
C         58.79325        42.33056         1.66060
C         59.91085        44.50467         0.93047
C         58.79511        43.84599         1.73172
C         59.85245        45.86638         0.75368
C         58.63643        46.60020         1.01977
C         59.97559        48.63909         1.28702
C         58.63904        48.00656         1.01916
C         59.93975        50.16788         1.29350
C         58.64758        50.91442         1.11645
C         59.90228        53.10239         0.90516
C         58.64015        52.32460         0.98095
C         59.87899        54.52934         0.45717
C         58.59733        55.22137         0.48222
C         59.80214        57.37344        -0.02138
C         58.58546        56.65561         0.21613
C         59.80266        58.73268        -0.35306
C         58.55730        59.44395        -0.42569
C         59.79096        61.52365        -1.01685
C         58.53077        60.83201        -0.69432
C         59.78093        63.06549        -1.08778
C         58.53533        63.73186        -0.73799
C         59.74250        65.72058         0.04864
C         58.57359        65.01200        -0.13106
C         62.11546        35.85175        -0.20956
C         62.10943        37.26137        -0.32931
C         60.78078        38.04972        -0.46842
C         62.13415        40.16977         0.05097
C         60.95220        39.33437         0.31977
C         62.28894        41.58904         0.45177
C         61.17152        42.37463         0.89351
C         62.24064        44.40766         0.06033
C         61.11002        43.77841         0.57478
C         62.21232        45.84279        -0.25893
C         60.95440        46.62096         0.12789
C         62.29548        48.69580         0.20422
C         61.08994        48.04734         0.43080
C         62.40377        50.12789         0.41535
C         61.23535        50.87040         0.98007
C         62.27964        52.98911        -0.02118
C         61.20355        52.36186         0.83216
C         62.39150        54.49004         0.31574
C         61.05386        55.19751         0.22672
C         62.22990        57.26906        -0.69436
C         61.12727        56.70798         0.24457
C         62.28567        58.77001        -0.57334
C         61.06819        59.45923        -0.53448
C         62.28254        61.61414        -0.68800
C         61.06680        60.86600        -0.75197
C         62.30095        63.02450        -0.65874
C         61.08574        63.78849        -0.92249
C         62.29177        65.90897        -0.03162
C         61.02429        65.25289        -0.46334
C         62.28206        67.33032         0.12808
C         64.56044        35.79354        -0.13294
C         63.29911        35.14303        -0.10590
C         64.58520        37.21494        -0.27332
C         63.34512        37.93081        -0.36331
C         64.66155        40.12081        -0.28328
C         63.39205        39.41554        -0.41992
C         64.67313        41.49127        -0.13309
C         63.47798        42.25300         0.12659
C         64.67338        44.39051        -0.28870
C         63.50152        43.70238         0.00190
C         64.66826        45.80563        -0.81729
C         63.46670        46.58807        -0.36147
C         64.74962        48.67235        -0.38523
C         63.48799        47.96382        -0.23021
C         64.75788        50.07029        -0.32685
C         63.55234        50.78807         0.02627
C         64.65603        52.81716        -0.93158
C         63.66268        52.29385         0.12930
C         64.63438        54.34701        -1.03520
C         63.46219        55.13367        -0.55294
C         64.83626        57.29249        -0.32111
C         63.53004        56.59277        -0.43716
C         64.74736        58.73927        -0.73897
C         63.53999        59.45640        -0.70485
C         64.75605        61.62067        -0.60483
C         63.54795        60.90400        -0.66358
C         64.79523        63.01176        -0.24902
C         63.46339        63.66970         0.07313
C         64.71999        65.90159         0.38905
C         63.46333        65.18325         0.07425
C         64.56600        67.28637         0.94398
C         63.39001        67.99259         0.63082
C         67.01137        32.93891         0.18201
C         65.84984        33.64389         0.15596
C         67.01985        35.76787        -0.20946
C         65.80382        35.06499        -0.11533
C         67.04287        37.19017        -0.15436
C         65.84943        37.90015        -0.25233
C         67.18790        40.07381        -0.28110
C         65.90978        39.35918        -0.63801
C         67.21134        41.47271        -0.26489
C         65.95549        42.20421        -0.04092
C         67.22216        44.38220        -0.50635
C         65.96281        43.71134        -0.13069
C         67.18616        45.77636        -0.68193
C         65.97629        46.52385        -0.60948
C         67.23459        48.64784        -0.53465
C         65.98581        47.93321        -0.54379
C         67.23183        50.08176        -0.52846
C         66.00161        50.79636        -0.50194
C         67.21598        52.89392        -0.89676
C         66.01307        52.19867        -0.68937
C         67.21131        54.31376        -1.32830
C         65.92047        55.09757        -1.30674
C         67.29705        57.27129        -0.95571
C         65.97910        56.57918        -1.05453
C         67.29254        58.69486        -0.91860
C         66.00053        59.39897        -1.06231
C         67.29484        61.60071        -0.63801
C         66.01431        60.95963        -0.95009
C         67.28329        62.97711        -0.25295
C         66.00526        63.66319        -0.06044
C         67.29958        65.58180         0.92326
C         66.01878        65.11843         0.30593
C         67.38797        66.53344         1.87601
C         65.60432        67.86099         1.73700
C         67.40122        69.51211         2.29733
C         66.12934        69.14768         1.76169
C         69.56409        31.40929         0.04811
C         69.56263        32.79907        -0.16524
C         68.26310        33.51512        -0.33327
C         69.56916        35.77431        -0.57345
C         68.26118        35.03221        -0.52347
C         69.60939        37.18610        -0.16749
C         68.33189        37.88371         0.24674
C         69.59805        40.04728         0.05297
C         68.38744        39.36026        -0.07666
C         69.64925        41.46642        -0.11319
C         68.43109        42.19608        -0.24546
C         69.69923        44.28821        -0.47194
C         68.44762        43.63171        -0.42577
C         69.76411        45.72172        -0.79675
C         68.44081        46.50534        -0.92320
C         69.71235        48.61224        -0.58107
C         68.46910        47.95284        -0.68310
C         69.70439        50.06142        -0.35217
C         68.45350        50.80809        -0.56099
C         69.72113        52.94724        -0.77980
C         68.45959        52.20961        -0.73538
C         69.72421        54.34683        -0.83278
C         68.51823        55.09025        -1.19459
C         69.74020        57.26961        -0.93192
C         68.49697        56.56317        -1.00922
C         69.73724        58.70145        -0.90556
C         68.49854        59.42360        -0.89969
C         69.75058        61.56427        -0.60870
C         68.50279        60.87483        -0.74983
C         69.76406        62.96722        -0.30844
C         68.52451        63.64445        -0.12353
C         69.84141        65.68652         0.67019
C         68.54013        65.06346         0.29098
C         69.89727        66.77113         1.69863
C         68.60535        67.27965         2.26738
C         69.79132        69.38091         2.89698
C         68.52222        68.72744         2.56901
C         69.78090        70.59798         3.61457
C         71.97555        31.36644         0.06949
C         70.75510        30.69647         0.16934
C         71.99252        32.74355        -0.14193
C         70.80073        33.48079        -0.25888
C         72.04532        35.70246         0.01070
C         70.87566        34.95967        -0.46472
C         72.02936        37.05921         0.11966
C         70.81171        37.82762         0.03265
C         72.09133        40.03620         0.19881
C         70.82399        39.28056         0.49858
C         72.10763        41.37579        -0.00076
C         70.89870        42.16665        -0.08683
C         72.12819        44.35203        -0.11559
C         70.91601        43.58473        -0.22484
C         72.15334        45.72602        -0.20821
C         70.98779        46.48490        -0.51637
C         72.19137        48.65508        -0.70200
C         70.95996        47.90094        -0.57489
C         72.23672        50.00917        -0.78703
C         71.05688        50.83626        -0.49520
C         72.11781        52.97712        -1.32301
C         70.97437        52.25026        -0.83786
C         72.14134        54.33608        -1.28467
C         71.02089        55.07224        -0.58613
C         72.16759        57.27651        -0.84528
C         70.97458        56.56004        -0.86096
C         72.17462        58.67402        -0.88443
C         70.97948        59.40608        -0.87984
C         72.18886        61.57646        -0.72617
C         70.98268        60.85613        -0.75780
C         72.21224        62.93167        -0.41870
C         71.03301        63.64084        -0.13741
C         72.26811        65.71502         0.61824
C         71.11139        64.98670         0.39162
C         72.25583        67.03191         1.17855
C         71.11720        67.60093         1.72361
C         72.22954        69.56908         2.76725
C         71.05078        68.84839         2.46825
C         72.18783        70.76510         3.47129
C         70.95644        71.27953         3.90301
O         66.22864        66.90403         2.56205
O         60.37306        40.59901         2.25169
O         69.49175        66.42763         3.07702
O         60.84839        50.58870         2.37184
O         48.95648        46.62645        -1.30294
O         70.45989        50.51822         0.81017
O         70.36373        35.44658        -1.74528
O         61.20657        46.23581        -1.26634
O         55.90038        42.05963         3.50738
O         48.27016        50.09451        -1.85238
O         68.00276        54.60273        -2.50975
O         54.37254        46.66171         2.64103
O         56.11877        56.19259         1.88799
O         65.96825        60.26790        -2.23254
O         69.17221        66.05230        -0.60149
O         53.33560        60.38233         0.82410
O         65.62940        65.96207        -0.83674
O         60.83579        53.01328         2.07692
O         69.17286        46.06285        -2.10308
O         50.60013        55.10369         1.55615
O         68.09066        34.12689        -1.65518
O         62.49689        40.04071        -1.39796
O         47.43171        52.63538        -2.61355
O         51.53354        44.02953         2.83123
O         50.64995        49.09181        -1.37502
O         66.05915        43.02547         1.18103
O         65.73582        56.05863        -2.39093
O         59.73213        62.25032        -2.29267
O         63.55003        54.70914        -1.97894
O         61.12838        64.90444        -1.88174
O         64.25385        52.59436         1.40623
H         63.64676        52.29818         2.11641
O         53.39872        52.45826         2.54769
H         53.28438        53.42033         2.73048
O         46.66122        48.11342         1.98297
H         45.88675        47.76339         2.47428
O         65.91874        39.34449        -2.11462
H         65.07196        38.95042        -2.41587
O         61.76814        52.81394        -1.35249
H         62.46476        53.09545        -1.99908
O         47.69796        56.91027        -2.55423
H         47.71991        55.94861        -2.75399
O         65.25494        57.25951         1.09892
H         64.44129        57.25708         1.64966
O         53.96181        55.85588        -1.48706
H         53.72263        56.50473        -2.18225
O         53.40037        47.33385        -0.83911
H         53.68286        47.98738        -1.51713
O         62.86936        54.67996         1.66672
H         62.18808        54.28769         2.26624
O         70.73139        39.19412         1.97755
H         70.72467        40.11305         2.32236
O         61.81143        56.95791        -2.05927
H         62.51574        56.42488        -2.49262
O         52.54819        48.66071         2.41441
H         52.11542        49.47202         2.75636
O         60.57179        38.29681        -1.87988
H         61.25933        38.95345        -2.15365
O         68.30350        37.80201         1.71493
H         69.12942        38.24313         2.04448
O         64.22651        52.29643        -2.21623
H         64.74764        52.74080        -2.91803
O         50.54356        54.33840        -2.04316
H         49.97140        53.75177        -2.60255
O         61.54106        57.10424         1.58583
H         60.87905        56.75970         2.22178
O         48.75171        52.47926        -3.17346
H         48.87539        51.49299        -3.14415
O         53.22673        42.18920         3.68387
H         53.95600        42.47110         4.27947
O         59.10733        44.16035         3.12979
H         58.37593        43.81536         3.68588
O         55.29567        48.86149        -1.04402
H         56.09936        49.41827        -1.12725
O         53.20858        55.56208         2.09762
H         52.20334        55.53780         2.15701
O         60.30028        48.17700         2.63301
H         60.81058        48.90501         3.06389
O         64.52422        45.68850        -2.28404
H         63.58132        45.49411        -2.47647
O         49.93153        58.38854        -2.70492
H         49.11435        57.87902        -2.95307
O         48.42674        56.56683         1.05059
H         49.17446        56.05109         1.49478
O         50.59068        52.41854         1.85588
H         50.53248        53.42322         1.97064
O         63.20837        63.30766         1.49612
H         63.98338        63.60033         2.02239
O         71.31539        54.97487         0.85743
H         71.34798        54.01973         1.08225
H         37.63794        48.73734         0.30980
H         35.49042        49.93045         0.20545
H         37.53846        53.67586        -0.34139
H         35.44085        52.41275        -0.12151
H         39.29185        47.84199         0.38809
H         39.15348        54.62557        -0.50661
H         41.40944        46.68556         0.51644
H         41.22706        55.85401        -0.72003
H         45.08161        44.57365         0.75937
H         43.01968        45.82668         0.79174
H         44.90011        58.06820        -0.96011
H         42.81662        56.81345        -0.74354
H         46.74365        43.52840         0.51415
H         46.56740        59.04506        -0.47983
H         48.89594        42.41880         0.80074
H         48.69778        60.25633        -0.55685
H         52.93295        40.57573         1.07217
H         50.86470        41.68317         0.43820
H         52.37233        62.39191        -1.67621
H         50.33055        61.05025        -1.81605
H         54.22012        39.53051         2.36078
H         53.92686        63.50751        -0.98258
H         56.23664        38.36186         1.77986
H         56.05425        64.75206        -1.02051
H         59.34477        36.33477        -0.45425
H         57.58101        37.34081         0.81825
H         59.73279        66.61112         0.69344
H         57.64097        65.42827         0.27651
H         61.16291        35.30449        -0.19084
H         61.35581        67.88609        -0.06866
H         63.25014        34.04929        -0.01725
H         63.32084        69.05859         0.89317
H         67.00502        31.90806         0.56282
H         64.92600        33.14346         0.47881
H         67.56148        70.60074         2.35973
H         65.56359        69.94659         1.25940
H         68.61276        30.86301         0.10242
H         68.82493        71.00135         3.97717
H         72.92075        30.81227         0.14822
H         70.72992        29.60980         0.32821
H         72.96152        33.25171        -0.23854
H         72.95195        35.15517         0.30417
H         72.94629        37.56620         0.45029
H         73.04948        39.49955         0.24452
H         73.07709        41.87496        -0.14238
H         73.06809        43.83076         0.11134
H         73.10525        46.24708        -0.03352
H         73.11981        48.09141        -0.87141
H         73.18485        50.50287        -1.04244
H         72.98743        52.42269        -1.70418
H         73.03025        54.88265        -1.62896
H         73.12617        56.74700        -0.75942
H         73.14468        59.18649        -0.85760
H         73.14560        61.06845        -0.90192
H         73.18356        63.43938        -0.34923
H         73.24866        65.29419         0.35382
H         73.21473        67.56766         1.22399
H         73.20204        69.17165         2.44533
H         73.11890        71.30271         3.69717
H         70.92132        72.21766         4.47373
