         294
 CSIRO Nanostructure Databank - Neutral Graphene Oxide Data Set
C          1.28921         1.97954        -0.80407
C          1.22086         3.37247        -0.45218
C          2.47029         1.30368        -0.78519
C          2.34037         4.08505        -0.11964
C          1.11143         6.34976        -0.24493
C          1.15443         7.66980        -0.47370
C          2.27952         5.54915         0.29776
C          2.42874         8.48875        -0.53420
C          1.31928        10.76069        -0.91251
C          1.32113        12.10276        -0.90335
C          2.24405         9.94890        -0.02761
C          2.40731        12.86396        -0.22435
C          1.33540        15.19370        -0.62871
C          1.45651        16.54932        -0.75797
C          2.45574        14.36696        -0.16196
C          2.65073        17.24172        -0.37949
C          2.69486        18.67765        -0.38572
C          3.69837         1.97306        -0.40823
C          3.64065         3.42104        -0.13273
C          4.85584         1.26859        -0.20648
C          4.81565         4.10197         0.08093
C          3.61427         6.25621        -0.06486
C          3.56858         7.76001         0.27402
C          4.82397         5.51422         0.61733
C          4.93767         8.42929        -0.00118
C          3.59553        10.66651         0.17559
C          3.75661        12.13294        -0.29361
C          4.87782         9.91502         0.31589
C          4.90238        12.80520         0.45499
C          3.85201        15.00001        -0.18939
C          3.81157        16.51255         0.02621
C          4.81805        14.28476         0.80646
C          4.92467        17.19636         0.48134
C          3.75603        19.37115         0.10684
C          4.96440        18.69843         0.68782
C          6.11115         1.96503         0.25929
C          6.10530         3.40238        -0.26969
C          7.39507         1.27485        -0.09957
C          7.34254         4.16229         0.09324
C          6.12707         6.25349         0.40931
C          6.10204         7.71455         0.78051
C          7.32363         5.57131         0.17212
C          7.40746         8.43905         0.53765
C          6.17820        10.67632         0.06783
C          6.06186        12.11751         0.56043
C          7.39137         9.90918         0.59971
C          7.30708        12.78853         1.08145
C          6.17246        14.97698         0.73385
C          6.16334        16.46725         0.75567
C          7.33416        14.27996         0.77530
C          7.44457        17.23284         0.51369
C          6.22339        19.31958         0.10135
C          7.43156        18.64559         0.03534
C          8.60234         1.93526         0.03736
C          8.58171         3.39285         0.48147
C          9.83844         1.24071        -0.06268
C          9.84704         4.14038         0.11172
C          8.61129         6.34294        -0.10902
C          8.57884         7.78284         0.32595
C          9.87607         5.62129         0.29943
C          9.87668         8.56393         0.17960
C          8.54694        10.56985         0.86549
C          8.53014        12.03299         0.60753
C          9.82996         9.78379         1.11132
C          9.79834        12.74133         0.36925
C          8.62205        14.98623         0.53643
C          8.55625        16.38321         0.01855
C          9.86219        14.22382         0.27144
C          9.78772        17.03688        -0.50419
C          8.68856        19.24453        -0.29568
C          9.92413        18.51905        -0.36572
C         11.10520         1.87533         0.08432
C         11.11386         3.36032         0.05053
C         12.30579         1.19311         0.12305
C         12.38357         4.05188         0.34168
C         11.07382         6.29424         0.40998
C         11.14536         7.75103         0.44041
C         12.30585         5.49600         0.68703
C         12.36079         8.42887         0.49004
C         11.11310        10.63545         1.07159
C         11.06766        12.11988         0.82367
C         12.47167         9.89052         1.01848
C         12.28389        12.95323         0.61302
C         10.98854        14.67998        -0.67940
C         11.00487        16.21572        -0.81358
C         12.29756        14.12584        -0.06520
C         12.30311        16.91642        -0.82345
C         11.18656        19.11261        -0.33567
C         12.44422        18.28269        -0.14354
C         13.65033         1.85476         0.30259
C         13.56386         3.36940         0.30254
C         14.73342         1.31067        -0.68068
C         14.82724         4.12735         0.16360
C         13.61206         6.23145         0.86029
C         13.59415         7.66133         0.51690
C         14.88572         5.51712         0.61904
C         14.83069         8.18607         0.16933
C         13.49836        10.89992         0.32675
C         13.53126        12.26867         1.09697
C         14.89001        10.37782         0.18233
C         14.80533        12.98947         0.75280
C         13.57717        14.61507        -0.73029
C         13.59685        16.15609        -0.86144
C         14.83418        14.06341        -0.07130
C         14.71943        17.10979        -0.70493
C         13.84240        18.77559        -0.57911
C         14.84170        19.44862         0.24029
C         16.09278         1.98585        -0.50807
C         16.05008         3.47595        -0.39608
C         17.26957         1.33166        -0.63430
C         17.37548         4.24577        -0.40444
C         16.08648         6.22265         0.61780
C         16.06501         7.65842         0.62253
C         17.34979         5.59137         0.29709
C         17.25532         8.46481         0.89474
C         16.02428        10.80238         0.78036
C         16.05554        12.24438         1.12587
C         17.30612        10.01512         1.06054
C         17.35879        12.91508         0.87720
C         16.18165        14.54204        -0.52944
C         15.97764        16.95743         0.02555
C         17.25562        14.42008         0.58795
C         17.28059        17.19598        -0.56349
C         16.07015        19.75329        -0.41345
C         17.31559        19.10744        -0.16142
C         18.59337         2.07183        -0.78994
C         18.53674         3.35050         0.08987
C         19.86373         1.30149        -0.51591
C         19.85896         4.12778         0.14013
C         18.50336         6.32018         0.22093
C         18.60700         7.73281         0.65734
C         19.79379         5.61232         0.02134
C         19.79571         8.52107         0.30879
C         18.53123        10.65876         0.41664
C         18.48707        12.17085         0.18101
C         19.71224         9.94058         0.18466
C         19.80334        12.86891         0.58662
C         18.55496        15.10500         0.25146
C         18.54498        16.50894        -0.05560
C         19.76571        14.38549         0.30965
C         19.76112        17.19371        -0.14016
C         18.59463        19.48522        -0.18570
C         19.77667        18.63366        -0.61460
C         21.03763         1.94150        -0.42048
C         21.20169         3.41609        -0.11613
C         22.07007         4.24695        -1.05194
C         20.84073         6.43971        -0.70166
C         21.10015         7.73778         0.13073
C         22.01313         5.58850        -1.14491
C         22.22666         8.58113        -0.40226
C         20.92714        10.69357        -0.28536
C         20.99045        12.19213        -0.08980
C         22.16636         9.91486        -0.51287
C         22.25808        12.95230         0.01084
C         20.99655        15.06722         0.19590
C         21.00680        16.50056         0.05998
C         22.23212        14.29713         0.17425
C         22.21210        17.24233         0.08893
C         21.06574        19.34321        -0.33324
C         22.20937        18.65130        -0.04493
O          6.99280        17.02613         1.87485
O         14.91653         9.27887        -0.68154
O         16.95148        12.61837         2.23987
O         15.14182         4.08114        -1.39103
O         12.84120         5.79236         2.03150
O          2.10365        13.53582         1.01982
O          4.15422        10.36383         1.50212
O          9.71239        14.89414         1.55321
O         10.90260        14.05699        -1.91564
O         20.69394        11.63163        -1.41388
O         11.00415        11.57162         2.20197
O         10.42453         3.82564        -1.20322
O         11.56611        16.77658        -2.05602
O         18.02614         7.87844         2.00279
O         14.46875        16.63600        -1.98026
O          9.04235        12.21305        -0.76017
O         16.44626        14.78989        -1.68817
O          4.14218        12.14171        -1.66125
O          8.70344        16.59876        -1.41079
O         20.04533         4.96792         1.33396
O          6.34265        10.71897        -1.37960
H          5.59903        11.31864        -1.72355
O         12.98557        11.16491        -0.98498
H         13.33358        10.48289        -1.59924
O         14.14811         1.48968         1.62549
H         13.49233         1.78211         2.29289
O          6.14552         3.28804        -1.73101
H          5.83696         4.13755        -2.11240
O          8.69550         6.40238        -1.58374
H          9.07988         5.55232        -1.89760
O         19.64116        18.54316        -2.10165
H         20.51789        18.26952        -2.44910
O          3.26987         7.85284         1.67458
H          3.36967         8.80707         1.94316
O         17.61028         4.62488        -1.79510
H         16.71917         4.85932        -2.15368
O          9.96808         9.02093        -1.18644
H          9.58172         8.32129        -1.76108
O         18.20610        12.40707        -1.21488
H         18.98324        12.07686        -1.73310
O         17.51435        10.24171         2.48556
H         17.96710         9.43897         2.84194
O          5.26743         8.29307        -1.39785
H          5.74665         9.12694        -1.68484
O         14.71012        19.52986         1.55823
H         13.84550        19.11525         1.82093
O          8.53876         3.38636         1.94227
H          7.67221         2.97481         2.19517
O          3.78292         6.09341        -1.48602
H          4.50780         6.71074        -1.76670
O         17.25035        17.21876        -1.93554
H         18.16021        17.40529        -2.27877
O         13.55974        12.13403         2.51508
H         12.67435        11.80464         2.81250
O         20.20143         6.90966        -1.91621
H         19.98663         6.13501        -2.47765
O         18.21994         2.92517         1.42558
H         18.63734         3.56597         2.04423
O          4.96111        18.93239         2.13753
H          5.75144        18.45623         2.48897
O          6.07010         2.06398         1.72825
H          5.91485         1.16416         2.08548
O         12.91500         9.66811         2.36718
H         12.20635         9.17855         2.83922
O         19.98894        12.67048         2.00736
H         19.11076        12.65877         2.44858
O          2.06663         5.52913         1.73994
H          2.08757         6.47548         2.03455
O          4.34032        14.40937         2.16286
H          4.22323        15.36154         2.36418
O          2.76481         8.60507        -1.92234
H          2.84821         7.69564        -2.28756
O          1.58809         9.87267         1.26053
H          1.56040        10.77647         1.64094
O         18.73032         2.37036        -2.20049
H         18.04933         3.03992        -2.45072
O          7.32687        12.66347         2.53044
H          6.48055        13.02609         2.87147
O          9.80071         9.23708         2.45201
H          9.70031         9.99422         3.07002
O         16.76090        15.02851         1.80186
H         16.65304        14.29224         2.46377
O          4.64459         5.43464         2.05663
H          3.68783         5.21367         2.22476
O         14.30556         1.51737        -2.02596
H         14.36737         2.48557        -2.20518
O         21.96755         3.40209         1.11916
H         21.73276         4.22928         1.60450
O          5.86195         7.83289         2.19736
H          5.28932         7.07142         2.47388
O         21.50505         7.28249         1.44778
H         21.56412         8.06027         2.04027
O          4.37448        14.81670        -1.51958
H          4.35270        13.83180        -1.74955
O         13.52431        14.08716        -2.05741
H         12.55273        14.03496        -2.32198
O         15.79978        17.16247         1.33592
H         16.63250        17.01891         1.83885
O         12.56229        18.01029         1.30299
H         11.66164        17.87951         1.67166
H          0.35921         1.46291        -1.08039
H          0.23435         3.85591        -0.46685
H          2.51125         0.23446        -1.03897
H          0.13317         5.84469        -0.28185
H          0.22654         8.18480        -0.77127
H          0.53942        10.22137        -1.47099
H          0.56542        12.65526        -1.48384
H          0.36984        14.70792        -0.83444
H          0.59647        17.14515        -1.09791
H          1.82110        19.21832        -0.78043
H          4.85853         0.17208        -0.30953
H          3.73735        20.47123         0.11027
H          7.38186         0.20998        -0.38114
H          6.16347        20.36239        -0.24432
H          9.81046         0.15363        -0.23440
H          8.72382        20.34056        -0.39294
H         12.29355         0.09209         0.10721
H         11.25888        20.20550        -0.22430
H         14.83303         0.20887        -0.51754
H         13.86749        19.08954        -1.63904
H         17.26734         0.23764        -0.76945
H         15.93328        19.88802        -1.50728
H         19.84227         0.20523        -0.61831
H         18.81631        20.54966         0.01331
H         21.96633         1.35460        -0.34166
H         22.93264         3.72966        -1.50229
H         22.77417         6.10564        -1.75234
H         23.17364         8.06274        -0.61654
H         23.04138        10.47038        -0.88218
H         23.21940        12.42657        -0.08072
H         23.18927        14.83415         0.22425
H         23.16845        16.73994         0.27631
H         21.08860        20.43576        -0.45279
H         23.15548        19.19541         0.08916
