         424
 CSIRO Nanostructure Databank - Neutral Graphene Oxide Data Set
C          1.20758         3.64910         1.15167
C          0.00978         4.29795         0.94923
C          1.16135         6.37446         0.38224
C         -0.01248         5.65432         0.54655
C          1.11167         7.79104        -0.15779
C          0.02844         8.64458         0.48467
C          1.41730        10.73021         0.49372
C          0.12899         9.96556         0.68020
C          1.29011        12.16404        -0.01718
C          0.09959        12.88695         0.02493
C          1.23328        14.91446        -0.71743
C          0.06647        14.23275        -0.37380
C          1.14864        16.33447        -1.24449
C          0.15660        17.19473        -0.47612
C          1.14446        19.14077        -1.60529
C          0.15912        18.52266        -0.63709
C          1.19855        20.66689        -1.58213
C         -0.02316        21.43826        -1.25314
C          1.23218        23.60330        -1.46960
C         -0.00341        22.77683        -1.18126
C          1.20520        24.97114        -0.81575
C         -0.01664        25.62932        -0.55793
C          1.15425        27.66764         0.06767
C         -0.04221        26.94105        -0.12143
C          1.13471        29.07683         0.40860
C         -0.08056        29.78185         0.56999
C          1.10560        31.86246         1.00184
C         -0.09336        31.13863         0.84886
C          1.07292        33.30186         1.36664
C         -0.13027        34.12945         1.17296
C          1.17853        36.21631         1.23532
C         -0.07127        35.48669         1.21958
C          1.18775        37.64650         1.16760
C          3.67388         3.67009         1.10756
C          2.44041         4.33921         0.96156
C          3.64893         6.42117         0.41588
C          2.41818         5.72603         0.59016
C          3.63895         7.83984         0.09327
C          2.44273         8.50319        -0.11438
C          3.71652        10.67471        -0.40253
C          2.38687         9.97351        -0.43230
C          3.72105        12.07489        -0.54435
C          2.47455        12.81751        -0.45150
C          3.70693        14.91172        -0.97979
C          2.46343        14.20827        -0.74048
C          3.70729        16.32955        -1.12102
C          2.48510        17.07160        -1.25378
C          3.71903        19.20807        -1.29750
C          2.49619        18.45859        -1.39625
C          3.74722        20.62812        -1.26864
C          2.50292        21.39228        -1.45869
C          3.69355        23.49807        -0.95725
C          2.51045        22.84018        -1.16563
C          3.70653        25.01308        -1.04368
C          2.40773        25.64685        -0.58782
C          3.63043        27.71548         0.03741
C          2.39388        27.00118        -0.14880
C          3.60737        29.08383         0.37005
C          2.36028        29.78696         0.54025
C          3.59648        31.91257         0.89715
C          2.34132        31.18641         0.84201
C          3.62639        33.31253         1.03697
C          2.40976        34.06080         1.36587
C          3.61632        36.21973         0.92480
C          2.39448        35.52037         1.17166
C          3.61434        37.65733         0.89244
C          2.36275        38.34240         1.03528
C          6.13576         3.64958         1.02604
C          4.89327         4.33422         0.89881
C          6.12270         6.42428         0.39958
C          4.88297         5.73869         0.56783
C          6.12782         7.84211         0.14906
C          4.90258         8.54048        -0.00640
C          6.16035        10.64545        -0.40561
C          4.92106         9.94760        -0.27964
C          6.15362        12.01890        -0.73611
C          4.94786        12.75839        -0.77965
C          6.16118        14.90508        -1.08679
C          4.94461        14.19738        -0.97592
C          6.17790        16.32825        -1.06085
C          4.94126        17.04361        -1.09389
C          6.17345        19.15498        -0.97772
C          4.95034        18.47118        -1.12688
C          6.21523        20.62277        -1.13767
C          4.94580        21.36821        -1.09836
C          6.17975        23.49969        -0.68018
C          4.95777        22.77583        -0.92199
C          6.15750        24.91089        -0.39309
C          4.93350        25.64717        -0.43621
C          6.10859        27.69361         0.23233
C          4.88729        27.00010        -0.06457
C          6.10157        29.08810         0.47992
C          4.84565        29.80726         0.52985
C          6.09957        31.93507         0.99338
C          4.82276        31.18586         0.73832
C          6.01523        33.37142         0.57093
C          4.83699        34.06016         0.77428
C          6.04480        36.22516         0.51151
C          4.82812        35.51245         0.71697
C          6.04951        37.66535         0.56543
C          4.82389        38.35316         0.73880
C          8.60078         3.61206         0.97197
C          7.35360         4.29978         0.82532
C          8.58288         6.37571         0.28896
C          7.35557         5.71110         0.49293
C          8.60924         7.80879         0.11983
C          7.36570         8.54118         0.06806
C          8.63601        10.63916        -0.24756
C          7.40375         9.94178        -0.20911
C          8.68803        12.01131        -0.60754
C          7.43797        12.67078        -1.03610
C          8.70285        14.88247        -0.93302
C          7.44230        14.18283        -1.19725
C          8.74188        16.36674        -1.15477
C          7.40623        17.04364        -0.94863
C          8.59903        19.13643        -0.35322
C          7.38124        18.43289        -0.82142
C          8.65590        20.63067        -0.34918
C          7.49195        21.37619        -0.92349
C          8.64843        23.48447        -0.37989
C          7.44012        22.82729        -0.64789
C          8.63244        24.87012        -0.05943
C          7.37320        25.57303        -0.04219
C          8.55228        27.67768         0.49457
C          7.34669        26.97996         0.22271
C          8.57982        29.08365         0.59159
C          7.33926        29.79177         0.58147
C          8.53839        31.90047         0.33655
C          7.34822        31.21330         0.57627
C          8.50024        33.32970        -0.03684
C          7.20223        34.08083         0.08352
C          8.48755        36.21393         0.07064
C          7.25727        35.53944         0.21945
C          8.49519        37.64671         0.25252
C          7.28520        38.34230         0.45246
C         11.07333         3.56995         0.92673
C          9.82183         4.26140         0.82739
C         11.03777         6.33797         0.29381
C          9.83673         5.67613         0.46474
C         11.04947         7.69641        -0.34475
C          9.82497         8.47746         0.01461
C         11.16896        10.59844        -0.25049
C          9.89156         9.95426         0.23198
C         11.18885        12.10288        -0.16341
C          9.87785        12.74512        -0.57194
C         11.14043        14.89485        -0.59896
C          9.87730        14.17080        -0.74107
C         11.13966        16.29388        -0.36831
C          9.90560        17.04805        -0.46804
C         11.04690        19.14333         0.26475
C          9.86545        18.39395        -0.22131
C         11.10876        20.62507         0.07651
C          9.95930        21.31434        -0.26852
C         11.17547        23.47511         0.00046
C          9.98144        22.78384        -0.60964
C         11.10965        24.84763         0.28870
C          9.84939        25.52415         0.28294
C         11.08912        27.69260         0.90877
C          9.77879        26.91312         0.72733
C         11.06835        29.14100         0.68428
C          9.83093        29.81254         0.60947
C         10.98259        31.96646         0.10649
C          9.79408        31.23080         0.36322
C         10.94664        33.34127        -0.17436
C          9.75112        34.09569        -0.12397
C         10.97907        36.25304        -0.28459
C          9.72988        35.51741        -0.16027
C         10.97311        37.68033         0.06183
C          9.73904        38.31519         0.30448
C         13.53948         3.56614         0.88995
C         12.29405         4.23005         0.81602
C         13.56482         6.35624         0.24420
C         12.31113         5.74061         0.81545
C         13.53258         7.73775        -0.14409
C         12.35033         8.44525        -0.22779
C         13.62827        10.59488        -0.52853
C         12.34061         9.88932        -0.39173
C         13.64882        12.02032        -0.68511
C         12.33940        12.72266        -0.97131
C         13.57525        14.90046        -0.61403
C         12.36552        14.20734        -0.69554
C         13.59205        16.29110        -0.33961
C         12.36340        16.96281        -0.14178
C         13.61987        19.12517         0.20563
C         12.36825        18.37237         0.27185
C         13.59008        20.54384         0.71163
C         12.36124        21.31868         0.24978
C         13.59844        23.46760         0.50883
C         12.38202        22.73451         0.23450
C         13.60341        24.85540         0.57081
C         12.34357        25.58507         0.54884
C         13.59484        27.74457         0.99024
C         12.34366        26.95487         0.71278
C         13.52732        29.15700         0.44815
C         12.31046        29.81747         0.43070
C         13.39900        31.80663        -0.66751
C         12.33231        31.32517         0.32511
C         13.46440        33.32283        -0.61752
C         12.12994        34.02487        -0.78787
C         13.41436        36.09933        -0.81424
C         12.15563        35.51262        -0.54217
C         13.41488        38.14565        -0.12839
C         12.13951        38.45309         0.36697
C         15.98771         3.60552         1.01456
C         14.75604         4.26210         0.76323
C         16.03806         6.34289         0.16459
C         14.76354         5.66129         0.36529
C         16.05436         7.68827        -0.16927
C         14.80602         8.38512        -0.62633
C         16.08268        10.59140        -0.47619
C         14.83214         9.89039        -0.47468
C         16.09603        12.02267        -0.59468
C         14.84450        12.71423        -0.74317
C         16.06808        14.84666        -0.38062
C         14.84469        14.20319        -1.03575
C         16.06429        16.36015        -0.42665
C         14.84182        17.03313        -0.30098
C         16.06408        19.18526        -0.07299
C         14.81991        18.46417        -0.08730
C         16.04900        20.61973         0.14115
C         14.87200        21.28421         0.44358
C         16.10987        23.48069         0.43179
C         14.87501        22.73017         0.85473
C         16.10762        24.87791         0.48322
C         14.85278        25.60438         0.63813
C         16.06265        27.75982         0.51002
C         14.85575        26.99679         0.66419
C         16.02515        29.10959         0.17849
C         14.76088        29.84561         0.09081
C         15.93859        31.77642        -1.00286
C         14.72479        31.15083        -0.36200
C         15.93853        33.35558        -1.09419
C         14.64660        34.00436        -0.63519
C         15.86719        36.22013        -0.40981
C         14.65903        35.46892        -0.62878
C         15.85191        37.63187        -0.01779
C         14.69614        38.39987         0.35923
C         18.42665         3.64004         1.37205
C         17.21052         4.28141         0.95730
C         18.49801         6.31758         0.49373
C         17.26606         5.64972         0.50809
C         18.61041         7.67678        -0.05465
C         17.31092         8.41040        -0.39305
C         18.54615        10.58390        -0.31384
C         17.31650         9.88997        -0.38805
C         18.55007        12.02125        -0.42500
C         17.33362        12.71477        -0.60747
C         18.58519        14.92074        -0.42690
C         17.35216        14.20052        -0.91599
C         18.55141        16.34014        -0.33223
C         17.29607        17.06265        -0.35169
C         18.53768        19.20763        -0.15715
C         17.28848        18.48706        -0.20513
C         18.53028        20.64271        -0.07056
C         17.31017        21.34525         0.08142
C         18.55719        23.48329         0.16498
C         17.31954        22.76553         0.21581
C         18.55148        24.90193         0.36015
C         17.34961        25.58871         0.46295
C         18.58537        27.76243         0.23819
C         17.37096        27.06472         0.80494
C         18.52083        29.14686        -0.07547
C         17.25527        29.82549        -0.11304
C         18.41937        31.93093        -0.54095
C         17.21781        31.17772        -0.47422
C         18.35616        33.38199        -0.44668
C         17.16838        34.06606        -0.55306
C         18.33072        36.20495        -0.08335
C         17.10977        35.50867        -0.34290
C         18.31443        37.62507         0.10952
C         17.08034        38.28259         0.20610
C         19.60723         4.33021         1.43577
C         20.85173         6.46414         1.16332
C         19.67457         5.70429         1.02900
C         20.89326         7.82823         0.83177
C         19.80678         8.47606         0.23850
C         20.98179        10.63067        -0.07375
C         19.79181         9.88852        -0.07403
C         20.98223        12.02137        -0.21172
C         19.79272        12.74603        -0.33454
C         20.98346        14.94351        -0.06304
C         19.79054        14.20904        -0.29412
C         20.97552        16.32360        -0.04124
C         19.77196        17.05770        -0.18173
C         20.98238        19.24471        -0.20208
C         19.76206        18.50436        -0.17774
C         20.98747        20.61503        -0.19051
C         19.77309        21.36245        -0.10317
C         21.01111        23.54481        -0.07308
C         19.77902        22.77935        -0.01058
C         21.05482        24.86751         0.18654
C         19.84695        25.63651         0.64417
C         20.96616        27.76959        -0.23526
C         19.79933        27.07737         0.16908
C         20.92946        29.12131        -0.51324
C         19.71462        29.84959        -0.42642
C         20.85206        32.07796        -0.83454
C         19.66563        31.27297        -0.57820
C         20.83271        33.40952        -0.62044
C         19.62815        34.03204         0.05089
C         20.75454        36.26020         0.20415
C         19.59012        35.53602         0.00277
C         20.73422        37.67091         0.31890
C         19.53502        38.34242         0.28924
O         13.40960        37.39540        -1.32542
O         18.14543         7.81392        -1.45078
O          1.85682        21.14656        -2.81882
O          7.50023        13.27857        -2.37162
O         11.59053        18.64240         1.52765
O         10.33545        27.19735         2.06494
O          7.11870        21.00749        -2.28772
O          7.64876        33.56134        -1.23400
O          8.29793        19.91305         0.88660
O          1.77721        33.60543         2.61622
O         14.93815        22.72092         2.32958
H         14.34791        21.98586         2.63367
O         11.43325        12.43753         1.23164
H         10.89666        11.80978         1.77334
O          0.67717        18.82559        -2.95339
H          1.19285        19.40549        -3.56083
O         14.78859         8.15855        -2.09001
H         15.70842         8.26393        -2.41732
O          6.22694        32.00131         2.47807
H          5.36642        32.32310         2.82612
O          9.91687        10.15942         1.71918
H          9.09490         9.75590         2.07424
O          1.84399        10.12598        -1.78837
H          2.57068         9.95229        -2.42351
O         12.78641        31.80911         1.62933
H         12.33076        31.28972         2.32510
O         10.19644        22.84873        -2.07469
H          9.39299        22.48662        -2.50893
O          3.78071        25.29481        -2.48347
H          2.96015        24.91374        -2.88632
O         12.07638        12.55494        -2.39139
H         12.01173        11.59332        -2.57553
O          1.27165        23.85346        -2.91554
H          1.39678        22.96372        -3.33170
O         15.97335        14.50351         1.02802
H         16.69070        14.96849         1.50741
O         14.89263        14.37382        -2.47225
H         14.08969        13.94867        -2.84475
O         11.86881        33.92157        -2.24305
H         12.46792        34.55230        -2.69681
O         13.47328        20.44210         2.19127
H         12.69795        19.84308         2.35676
O         19.73608        33.69704         1.47823
H         19.72780        32.71802         1.54609
O         17.51408        27.12991         2.26414
H         18.38537        26.70814         2.47899
O         13.62406        27.93208         2.45426
H         13.82794        27.06241         2.86051
O          0.68013        16.17268        -2.60747
H          0.58657        17.08116        -2.99493
O         17.39556        14.34821        -2.35990
H         18.21122        13.91110        -2.68087
O         12.33700         6.12541         2.24783
H         11.57845         5.67594         2.67910
O          9.02559        16.53552        -2.59542
H          8.50030        15.86424        -3.08264
O         13.02983        31.36914        -1.99830
H         13.86347        31.27102        -2.51552
O          2.06016        10.80136         1.79450
H          1.46478        11.28673         2.40226
O         15.87015        31.28083        -2.39170
H         16.56373        31.76330        -2.89716
O         15.97225        33.70196        -2.51927
H         15.09704        33.47420        -2.90055
O         19.94398        25.72613         2.11908
H         19.94150        24.80797         2.46545
O         10.93898         7.43897        -1.80950
H         10.08964         6.96889        -1.95580
O          0.72849         7.66365        -1.56434
H          0.81640         8.56944        -1.95315
H          1.22817         2.58958         1.44491
H         -0.93990         3.76062         1.08083
H         -0.98334         6.12845         0.34651
H         -0.93183         8.14947         0.69970
H         -0.72919        10.50553         1.11385
H         -0.83654        12.40264         0.33677
H         -0.90220        14.75079        -0.40249
H         -0.56247        16.72317         0.21080
H         -0.55141        19.15790        -0.08765
H         -0.96492        20.89488        -1.08711
H         -0.94997        23.29371        -0.97203
H         -0.97454        25.12660        -0.74155
H         -1.01684        27.41906         0.04018
H         -1.04191        29.26027         0.47874
H         -1.05975        31.64459         0.97755
H         -1.09925        33.63778         1.00532
H         -0.99899        36.07149         1.12750
H          0.23095        38.18443         1.23660
H          3.67853         2.60315         1.37633
H          2.35622        39.44181         1.01052
H          6.12785         2.58246         1.29413
H          4.82066        39.45333         0.74726
H          8.58327         2.53831         1.21248
H          7.30803        39.43836         0.54580
H         11.06026         2.47724         1.06140
H          9.74395        39.38824         0.54877
H         13.56052         2.47929         1.06432
H         12.01897        39.30369         1.05512
H         15.97094         2.55312         1.33627
H         14.84597        39.20594         1.09348
H         18.38289         2.58705         1.68692
H         17.06969        39.35154         0.46651
H         20.52092         3.84074         1.80309
H         21.74536         5.99115         1.59510
H         21.81289         8.38854         1.05168
H         21.94500        10.11846         0.05407
H         21.94915        12.54037        -0.18273
H         21.93902        14.42205         0.07799
H         21.92726        16.84825         0.11331
H         21.94298        18.71606        -0.25402
H         21.95232        21.13725        -0.22332
H         21.94428        23.03155        -0.34385
H         22.02739        25.37871         0.16529
H         21.92813        27.24467        -0.30107
H         21.85927        29.63593        -0.79051
H         21.75604        31.59282        -1.23056
H         21.72532        34.01751        -0.82669
H         21.71602        35.73773         0.30427
H         21.67669        38.21612         0.46725
H         19.49644        39.43364         0.41822
