         424
 CSIRO Nanostructure Databank - Neutral Graphene Oxide Data Set
C          1.16980         3.51129         0.50908
C         -0.02066         4.21095         0.64385
C          1.17386         6.34593         0.72780
C         -0.02646         5.60734         0.75696
C          1.20572         7.78549         0.86113
C         -0.00557         8.54141         1.10689
C          1.25565        10.69424         1.38543
C         -0.00252         9.87209         1.34084
C          1.12066        11.99954         0.58305
C         -0.07950        12.84290         0.61887
C          1.21011        14.84534        -0.08533
C         -0.02383        14.14435         0.23855
C          1.18954        16.31057        -0.25859
C          0.00743        17.05258        -0.05424
C          1.21337        19.15962        -0.28339
C          0.01867        18.43793        -0.09167
C          1.21664        20.61949        -0.23050
C          0.02355        21.34906        -0.01340
C          1.22429        23.46642        -0.15339
C          0.02598        22.73092        -0.01134
C          1.21633        24.91447        -0.14789
C          0.00866        25.64489        -0.14147
C          1.21051        27.76644        -0.11632
C          0.00577        27.02909        -0.12608
C          1.21141        29.21021        -0.09508
C         -0.00278        29.94896        -0.00205
C          1.19605        32.06911        -0.12885
C         -0.01306        31.32263        -0.00956
C          1.19840        33.49674        -0.14899
C         -0.03165        34.27317        -0.16792
C          1.23558        36.35387         0.29800
C         -0.03052        35.61949        -0.05018
C          1.22661        37.81326        -0.06594
C          3.63250         3.50234         0.35025
C          2.40758         4.20572         0.47540
C          3.64598         6.33905         0.52555
C          2.40865         5.63591         0.57621
C          3.66559         7.77541         0.58564
C          2.42859         8.48100         0.77502
C          3.67507        10.59744         0.72087
C          2.48465         9.91337         0.92337
C          3.59366        12.06890         1.00065
C          2.42212        12.74007         0.32670
C          3.73005        14.92962        -0.14044
C          2.41448        14.17601        -0.01789
C          3.58924        16.22091        -0.96927
C          2.38214        17.01540        -0.52492
C          3.67685        19.14047        -0.64957
C          2.41594        18.42891        -0.50719
C          3.64576        20.60479        -0.74228
C          2.41801        21.33878        -0.40558
C          3.70667        23.47267        -0.24317
C          2.45178        22.75772        -0.30128
C          3.68949        24.91078        -0.11526
C          2.44958        25.62715        -0.15189
C          3.68754        27.77208        -0.14786
C          2.44952        27.05709        -0.13490
C          3.68932        29.20674        -0.20788
C          2.43824        29.91808        -0.17270
C          3.65482        32.06009        -0.38459
C          2.42953        31.34899        -0.20290
C          3.63661        33.46509        -0.46547
C          2.43155        34.19003        -0.27031
C          3.65288        36.33926        -0.37700
C          2.46024        35.63215        -0.20958
C          3.65962        37.78887        -0.31940
C          2.37604        38.47848        -0.28993
C          6.10482         3.48033         0.21722
C          4.85797         4.17925         0.33007
C          6.10049         6.31502         0.39504
C          4.86192         5.61428         0.40818
C          6.11348         7.74101         0.40871
C          4.88706         8.47915         0.46408
C          6.11156        10.58138        -0.00676
C          4.90952         9.92299         0.37090
C          6.18478        11.99070        -0.37588
C          5.03038        12.71533        -0.81553
C          6.17297        14.81307        -0.49901
C          4.95267        14.12649        -0.62597
C          6.19427        16.28192        -0.69454
C          4.90920        17.01486        -0.93218
C          6.15738        19.17202        -0.48956
C          4.89878        18.48037        -0.70355
C          6.19424        20.57252        -0.40265
C          4.98427        21.36012        -0.66458
C          6.17345        23.44107        -0.02340
C          4.94275        22.78286        -0.27798
C          6.14611        24.88497         0.40243
C          4.89934        25.63083         0.00117
C          6.17369        27.75724        -0.05088
C          4.91245        27.04481        -0.06736
C          6.18080        29.20601        -0.25956
C          4.91076        29.92225        -0.31688
C          6.12351        32.05542        -0.66683
C          4.90603        31.33631        -0.48371
C          6.14533        33.45727        -0.71187
C          4.85783        34.19519        -0.95709
C          6.10198        36.33391        -0.55751
C          4.89235        35.65097        -0.59106
C          6.11093        37.77684        -0.41411
C          4.85392        38.47185        -0.36157
C          8.57910         3.45147         0.09675
C          7.32046         4.14766         0.25891
C          8.54734         6.29575         0.46514
C          7.32744         5.59298         0.38869
C          8.55956         7.70188         0.44594
C          7.35186         8.42912         0.39178
C          8.56869        10.55894         0.25379
C          7.36975         9.87576         0.19626
C          8.68572        11.94369        -0.28509
C          7.39423        12.71519        -0.26022
C          8.63195        14.88948        -0.26518
C          7.40530        14.12519        -0.38830
C          8.64016        16.27922        -0.16859
C          7.40716        17.03431        -0.31041
C          8.57126        19.12610         0.35197
C          7.37135        18.41206        -0.23239
C          8.60402        20.60838         0.08878
C          7.42308        21.29453        -0.11472
C          8.64647        23.47531         0.05005
C          7.39482        22.75108        -0.02980
C          8.62676        24.92230         0.00237
C          7.42022        25.62269         0.09058
C          8.65260        27.82601         0.19603
C          7.37461        27.04749         0.04150
C          8.64461        29.09968        -0.65633
C          7.36342        29.87760        -0.48320
C          8.65538        32.04969        -0.65671
C          7.38334        31.29199        -0.99291
C          8.61742        33.46690        -0.59807
C          7.36656        34.18396        -0.68111
C          8.56939        36.33454        -0.47823
C          7.35965        35.61473        -0.60973
C          8.56919        37.77538        -0.35930
C          7.31562        38.46452        -0.35560
C         11.05754         3.44030         0.06652
C          9.79078         4.09094         0.24671
C         11.07470         6.24597         0.32440
C          9.79953         5.50905         0.77413
C         11.07205         7.69922         0.83574
C          9.86250         8.45922         0.28069
C         11.11353        10.59241         0.50512
C          9.80146         9.89008         0.82496
C         11.11704        12.01283         0.36096
C          9.88793        12.70514         0.18056
C         11.17395        14.86972        -0.14271
C          9.89244        14.12399        -0.19987
C         11.13409        16.34277        -0.05567
C          9.89245        17.02742        -0.04966
C         11.10911        19.15804         0.05643
C          9.88397        18.43023         0.06603
C         11.13181        20.58745         0.10906
C          9.86974        21.33305         0.47904
C         11.12018        23.47545        -0.05007
C          9.87021        22.79117         0.09237
C         11.14398        24.90316        -0.17034
C          9.88878        25.64475        -0.08269
C         11.19388        27.77351         0.12451
C          9.90261        27.01699        -0.03569
C         11.08236        29.21737        -0.29588
C          9.90821        29.89541        -0.42896
C         11.08954        32.08558        -0.35517
C          9.88696        31.36031        -0.52494
C         11.06564        33.50331        -0.35610
C          9.82457        34.20465        -0.44763
C         11.02187        36.35735        -0.22652
C          9.81479        35.63547        -0.40838
C         11.02161        37.79011        -0.10793
C          9.77113        38.47097        -0.19954
C         13.51467         3.42064        -0.03415
C         12.28176         4.07645         0.23583
C         13.57163         6.26803         0.38219
C         12.33448         5.49422         0.77708
C         13.56060         7.70393         0.41203
C         12.35666         8.43619         0.53258
C         13.58135        10.57437         0.31292
C         12.33739         9.86604         0.46886
C         13.58966        12.00958         0.24141
C         12.36752        12.71113         0.32080
C         13.63569        14.89539         0.07859
C         12.36732        14.20333         0.50074
C         13.61153        16.29130        -0.06808
C         12.35603        17.02860        -0.01952
C         13.58630        19.15459        -0.16256
C         12.35208        18.44962        -0.04460
C         13.57872        20.57151        -0.19530
C         12.33640        21.28822        -0.04639
C         13.57309        23.42443        -0.27743
C         12.34323        22.73794        -0.10017
C         13.58590        24.85104        -0.43276
C         12.35965        25.58891        -0.35156
C         13.55121        27.71646        -0.75429
C         12.40612        27.04554        -0.41617
C         13.57190        29.20249        -0.91591
C         12.34116        29.95672        -0.56269
C         13.59868        32.11035        -0.54735
C         12.39415        31.36996        -0.04445
C         13.53165        33.53608        -0.51756
C         12.27650        34.24017        -0.28533
C         13.44416        36.34274         0.22854
C         12.26299        35.65478        -0.12119
C         13.45242        37.76360         0.34257
C         12.23181        38.46901         0.12666
C         15.96158         3.44242        -0.32191
C         14.72490         4.11552        -0.06514
C         15.97676         6.27148        -0.05279
C         14.74264         5.56397         0.09398
C         15.99561         7.67408         0.13873
C         14.80595         8.41350         0.30180
C         16.03368        10.57932         0.17765
C         14.81647         9.86014         0.29618
C         16.05013        11.99037        -0.04989
C         14.82203        12.71658         0.02637
C         16.03488        14.85501        -0.38195
C         14.83628        14.15944        -0.09228
C         16.05147        16.27055        -0.42063
C         14.83129        17.00102        -0.26560
C         16.04567        19.12975        -0.45449
C         14.82198        18.42979        -0.29682
C         16.04586        20.56566        -0.44053
C         14.81667        21.27416        -0.32346
C         16.03684        23.41413        -0.40425
C         14.81063        22.70586        -0.34196
C         16.03307        24.84246        -0.48606
C         14.80760        25.53433        -0.60271
C         16.05330        27.69504        -0.50423
C         14.83599        26.97225        -1.04874
C         16.11877        29.16146        -0.60993
C         14.89298        29.93610        -0.95641
C         16.02695        32.02734         0.03204
C         14.92410        31.48176        -0.90090
C         15.99481        33.42198         0.35818
C         14.84426        34.26443        -0.05641
C         15.89098        36.28286         0.86513
C         14.60325        35.52710         0.73383
C         15.88132        37.70578         0.88371
C         14.66697        38.42626         0.65596
C         18.41604         3.42322        -0.65957
C         17.15531         4.12661        -0.46700
C         18.39913         6.26341        -0.54737
C         17.19050         5.56847        -0.35778
C         18.49684         7.64937        -0.25222
C         17.29703         8.34114         0.23443
C         18.55292        10.54353        -0.13587
C         17.31492         9.87520         0.27048
C         18.51933        11.95243        -0.33888
C         17.28026        12.65882        -0.30963
C         18.54530        14.83182        -0.59883
C         17.25353        14.08026        -0.81644
C         18.54821        16.24916        -0.63465
C         17.28757        16.99289        -0.61046
C         18.50796        19.15450        -0.86535
C         17.26442        18.39416        -0.63209
C         18.52577        20.60530        -0.61000
C         17.28330        21.29210        -0.49056
C         18.51595        23.43469        -0.42235
C         17.28092        22.71339        -0.42832
C         18.50407        24.86803        -0.35677
C         17.26806        25.55796        -0.41475
C         18.47099        27.70270        -0.05634
C         17.24056        26.99511        -0.32213
C         18.42397        29.12027         0.21608
C         17.28894        29.85995        -0.04209
C         18.32041        31.89463         0.91908
C         17.19071        31.26848         0.32306
C         18.19802        33.26608         1.54224
C         17.05033        34.07748         0.99338
C         18.25048        36.21748         1.47589
C         17.06183        35.53126         1.13248
C         18.28588        37.64769         1.40337
C         17.10727        38.37220         1.10629
C         19.56354         4.07727        -0.92949
C         20.88088         6.23374        -0.80872
C         19.58235         5.56262        -1.17122
C         20.92649         7.55480        -0.51382
C         19.72077         8.34463        -0.33525
C         20.94264        10.51708        -0.56002
C         19.74957         9.79472        -0.28967
C         20.94107        11.90206        -0.64334
C         19.75276        12.65128        -0.53461
C         20.97443        14.82193        -0.43484
C         19.75945        14.11012        -0.53862
C         20.98607        16.20693        -0.47519
C         19.79196        16.93509        -0.60582
C         21.02041        19.18766        -0.45636
C         19.83650        18.39918        -0.81841
C         20.97906        20.54350        -0.41420
C         19.74976        21.29613        -0.53445
C         20.95940        23.48912        -0.38663
C         19.75338        22.73391        -0.43968
C         20.94910        24.86552        -0.28753
C         19.73335        25.59841        -0.26159
C         20.91828        27.83154        -0.04871
C         19.70191        27.02599        -0.09698
C         20.89449        29.12534         0.33580
C         19.62438        29.71286         0.91182
C         20.71877        31.94667         1.29630
C         19.56989        31.22114         1.01176
C         20.68217        33.35863         1.49848
C         19.49916        34.03398         1.60821
C         20.70694        36.24094         1.99556
C         19.42022        35.47378         2.07643
C         20.70989        37.60492         1.82833
C         19.52207        38.32803         1.59931
O          4.27919        12.64796         1.83949
O         14.47341        34.28154        -1.40437
O         10.77162        14.33913        -1.44212
O         12.68754        29.75363        -1.97508
O          4.32622        21.09981        -1.94767
O         17.47613         9.06730         1.49341
O          1.76936        11.90633        -0.70842
O          5.75157        16.64565        -2.08258
O         19.22099        18.78337        -2.09591
O         15.75521        29.51381        -2.07456
O         19.44087         5.72905        -2.63355
H         19.48144         6.69142        -2.81885
O         12.20279        14.44965         1.94102
H         12.95538        14.02638         2.40530
O          8.69531        28.28535         1.59609
H          8.50717        27.50659         2.16238
O          1.46796        11.12302         2.76089
H          1.55478        10.32237         3.31932
O          8.67289        28.72819        -2.07503
H          9.60417        28.55830        -2.33493
O         19.56897        29.24569         2.30414
H         19.54721        28.26521         2.28028
O         12.51304        31.25669         1.41838
H         12.46040        32.15981         1.79779
O          9.87231        21.33870         1.97409
H          9.17099        21.96551         2.25767
O         11.43831        27.84821         1.57639
H         10.63257        28.26917         1.96316
O         10.06902         8.61471        -1.15533
H          9.45060         9.30758        -1.48305
O         17.12550        13.94920        -2.29039
H         17.11498        14.85828        -2.66036
O          9.62760         9.92860         2.26070
H         10.18853         9.21262         2.65032
O          9.79967         5.35993         2.23563
H          8.93033         4.97941         2.48497
O         14.22545        35.06043         2.08275
H         14.19275        35.84857         2.66554
O          7.37675        31.17780        -2.46960
H          7.88025        30.35508        -2.69162
O          3.33395        15.82888        -2.33731
H          4.17875        15.96669        -2.83072
O         12.40195         5.40559         2.23264
H         11.59448         4.91996         2.53060
O         14.99167        26.93295        -2.50849
H         15.19399        27.86068        -2.78768
O          4.12449        12.04381        -1.55306
H          3.41441        12.63314        -1.88179
O         10.97064         7.67101         2.28169
H         11.61671         6.98533         2.60023
O         19.09348        35.37985         3.53843
H         19.03334        36.30040         3.87485
O          4.71664        34.18980        -2.43676
H          4.92791        33.28141        -2.74478
O          8.95782        11.72690        -1.74554
H          9.34728        12.56166        -2.09408
O         17.81843        33.01218         2.95576
H         18.12062        33.79809         3.47588
O         15.28116        31.96570        -2.21780
H         15.77101        31.23489        -2.66523
O          6.08658        24.83859         1.89063
H          5.84844        25.73981         2.19723
O         11.13214         6.20219        -1.11040
H         10.63042         6.96932        -1.47890
O          4.07823        15.34274         1.20622
H          4.22254        14.51665         1.73684
O          8.39673        19.01240         1.81685
H          9.05386        19.63398         2.21982
O          1.32755        36.31208         1.77496
H          1.32591        35.36570         2.03358
H          1.16511         2.41501         0.42761
H         -0.97524         3.66651         0.66670
H         -0.99255         6.11780         0.86421
H         -0.96714         8.00991         1.12787
H         -0.94839        10.38382         1.57211
H         -1.02812        12.41648         0.97564
H         -0.96161        14.71497         0.25110
H         -0.94880        16.55091         0.13948
H         -0.93100        18.96519         0.06332
H         -0.93233        20.82952         0.12809
H         -0.92906        23.25274         0.13091
H         -0.95650        25.12259        -0.15861
H         -0.96180        27.54701        -0.13049
H         -0.96069        29.42041         0.08712
H         -0.97457        31.84588         0.07536
H         -0.98449        33.75049        -0.33409
H         -0.97572        36.18163        -0.08718
H          0.26409        38.34659        -0.04862
H          3.61496         2.40457         0.27919
H          2.36935        39.56317        -0.47743
H          6.08764         2.38583         0.10428
H          4.86069        39.57182        -0.32764
H          8.55081         2.38561        -0.17848
H          7.31283        39.56092        -0.26179
H         11.05093         2.39153        -0.27303
H          9.75036        39.56677        -0.10144
H         13.50566         2.34722        -0.28063
H         12.22782        39.56648         0.20485
H         15.95356         2.34493        -0.40611
H         14.68528        39.52479         0.70234
H         18.41139         2.32710        -0.55689
H         17.14613        39.47077         1.07103
H         20.50252         3.52039        -1.06922
H         21.81318         5.65858        -0.91290
H         21.90230         8.03402        -0.34826
H         21.89064         9.98106        -0.70011
H         21.89629        12.41155        -0.82851
H         21.92852        14.28673        -0.34584
H         21.95048        16.73065        -0.44011
H         21.95838        18.67163        -0.20843
H         21.90556        21.08339        -0.17631
H         21.92982        22.97658        -0.41909
H         21.90845        25.39737        -0.22796
H         21.86597        27.38055        -0.37686
H         21.82692        29.70795         0.35187
H         21.69110        31.44144         1.36995
H         21.64220        33.87923         1.62059
H         21.64846        35.72974         2.23677
H         21.66292        38.15220         1.87690
H         19.55276        39.42223         1.50814
