         404
 CSIRO Nanostructure Databank - Neutral Graphene Oxide Data Set
C          1.43244         2.56561         2.71074
C          1.36420         3.91867         2.23684
C          2.61242         1.89362         2.78237
C          2.47136         4.60837         1.81114
C          1.08294         6.36984         0.61288
C          1.01279         7.37316        -0.29210
C          2.37225         5.94907         1.17316
C          2.20099         8.03882        -0.77082
C          1.50975        11.04988        -2.58539
C          1.59624        12.44744        -2.47236
C          2.29881        10.22444        -1.79433
C          2.57416        13.04701        -1.67397
C          1.46310        15.29214        -1.74363
C          1.45490        16.64454        -1.44491
C          2.56814        14.47463        -1.40730
C          2.55002        17.24329        -0.78134
C          2.61083        18.68451        -0.62279
C          3.88248         2.58579         2.55581
C          3.81842         4.05935         2.04240
C          5.08459         1.81592         2.26659
C          4.96786         4.56036         1.24942
C          3.64210         6.59595         0.57304
C          3.47811         7.68138        -0.43279
C          4.86110         5.76212         0.52614
C          4.65765         8.41307        -1.09076
C          3.44633        10.76830        -1.05191
C          3.61775        12.23297        -1.11802
C          4.70344         9.89930        -0.69092
C          4.79997        12.82046        -0.63598
C          3.67161        15.05051        -0.72917
C          3.64409        16.43139        -0.40797
C          4.84307        14.24857        -0.43319
C          4.78566        17.01909         0.30206
C          3.70487        19.31903        -0.13550
C          4.83769        18.56672         0.42733
C          6.21343         2.41711         1.70659
C          6.13935         3.75326         1.17629
C          7.45487         1.68490         1.69194
C          7.29423         4.25822         0.42701
C          6.01818         6.28892        -0.22382
C          5.98089         7.67679        -0.85415
C          7.32961         5.68198         0.05418
C          7.25414         8.43049        -0.84908
C          5.99580        10.61040        -0.67763
C          6.01235        12.02953        -0.52107
C          7.23329         9.89322        -0.83640
C          7.25070        12.72747        -0.41238
C          6.02303        14.86687         0.00822
C          6.05659        16.27801         0.31835
C          7.27036        14.13443        -0.06366
C          7.23605        16.93419         0.63767
C          6.15868        19.16241         0.52070
C          7.30024        18.38057         0.72798
C          8.65006         2.23000         1.23750
C          8.60315         3.49680         0.47562
C          9.91145         1.61526         1.44054
C          9.84264         4.26456         0.28964
C          8.50432         6.32240        -0.28642
C          8.44612         7.72319        -0.67838
C          9.79303         5.62741        -0.11027
C          9.71651         8.42164        -0.91309
C          8.44890        10.61978        -0.82595
C          8.48542        12.02528        -0.56728
C          9.72682         9.93123        -1.05182
C          9.72718        12.72050        -0.47172
C          8.46491        14.80043         0.15808
C          8.47875        16.11958         0.88674
C          9.74253        14.21839        -0.36118
C          9.76523        16.88423         0.73108
C          8.56342        19.01733         0.89750
C          9.78231        18.29711         0.89761
C         11.11666         2.26733         1.11834
C         11.07335         3.63867         0.60200
C         12.36199         1.62597         1.33616
C         12.27407         4.36171         0.45573
C         11.00951         6.32884        -0.23617
C         10.97521         7.79022        -0.42956
C         12.26128         5.71038         0.01287
C         12.25099         8.55477        -0.58386
C         11.01484        10.65977        -0.91125
C         10.98351        12.07600        -0.64287
C         12.21285         9.97088        -1.01667
C         12.19674        12.75393        -0.35049
C         10.99086        14.79358         0.26184
C         10.98312        16.16993         0.61882
C         12.20713        14.08873         0.17100
C         12.22747        16.83491         0.86067
C         11.03124        18.97189         1.02085
C         12.24417        18.26826         1.05933
C         13.59579         2.29248         1.16631
C         13.53619         3.73498         0.86378
C         14.85517         1.69380         1.33656
C         14.82428         4.40591         0.37681
C         13.50112         6.41419        -0.26843
C         13.51056         7.79287        -0.64414
C         14.72595         5.70272        -0.31316
C         14.70302         8.44265        -0.93063
C         13.48711        10.68359        -1.17259
C         13.48378        12.13621        -0.68124
C         14.78831         9.89530        -1.33512
C         14.70984        12.69085        -0.07475
C         13.44792        14.71880         0.54280
C         13.42206        16.08495         0.89550
C         14.69454        13.96187         0.50033
C         14.64416        16.76234         1.37648
C         13.48752        18.94508         1.20944
C         14.70127        18.24325         1.32814
C         16.07535         2.33292         0.93720
C         16.02472         3.59870         0.30522
C         17.34308         1.67861         1.03530
C         17.16685         4.10122        -0.45256
C         15.89877         6.30350        -0.80112
C         15.93316         7.71757        -0.97501
C         17.09494         5.48961        -1.07849
C         17.17205         8.40381        -0.99330
C         15.99021        10.53016        -0.65767
C         15.89130        11.82052         0.03963
C         17.19041         9.79990        -0.64474
C         17.19581        12.46268         0.53913
C         15.94695        14.57351         0.93640
C         15.93311        15.98651         1.41042
C         17.14955        13.90284         0.85900
C         17.18642        16.75968         1.41801
C         15.94122        18.88524         1.42056
C         17.18239        18.16891         1.45056
C         18.53267         2.25562         0.54436
C         18.47968         3.49259        -0.20069
C         19.80138         1.64663         0.76684
C         19.62229         4.09776        -0.71967
C         18.34466         6.21344        -1.60091
C         18.44368         7.59054        -0.88260
C         19.61205         5.34871        -1.41418
C         19.63844         8.46663        -1.20985
C         18.45449        10.44445        -0.31231
C         18.47696        11.82315         0.14413
C         19.66358         9.80277        -0.65344
C         19.65657        12.52638         0.21700
C         18.43351        14.54799         1.23567
C         18.44403        16.02254         1.51750
C         19.72224        13.88336         0.81596
C         19.74846        16.79691         1.39668
C         18.41826        18.89346         1.37513
C         19.66137        18.26764         1.23790
C         20.98114         2.16942         0.21662
C         20.89543         3.35282        -0.66835
C         22.24499         1.59110         0.43882
C         22.19813         4.07498        -1.05133
C         20.81217         5.86178        -1.90242
C         20.73549         8.05457        -1.91370
C         22.13902         5.47996        -1.50009
C         22.04796         8.68256        -1.85102
C         20.91205        10.51336        -0.64031
C         20.98926        11.83667         0.08222
C         22.07293         9.99770        -1.20394
C         22.01425        12.75459        -0.59597
C         20.94957        14.70862         0.60275
C         20.95809        16.10159         0.90413
C         22.10300        14.10774         0.07696
C         22.11685        16.87104         0.68367
C         20.85932        18.98193         1.02253
C         22.09645        18.31831         0.82859
C         23.45688         2.22558         0.06212
C         23.45207         3.53447        -0.53436
C         24.70470         1.62437         0.33590
C         24.61984         4.28783        -0.69616
C         23.30170         6.29219        -1.49273
C         23.33361         7.77498        -1.75890
C         24.56297         5.67316        -1.11855
C         24.57782         8.52298        -1.42665
C         23.33863        10.68078        -1.06707
C         23.34189        12.04472        -0.72001
C         24.55859         9.95515        -1.25167
C         24.55126        12.73764        -0.52102
C         23.33305        14.82334         0.04872
C         23.34010        16.22027         0.34691
C         24.56547        14.14687        -0.20562
C         24.55933        16.95111         0.30798
C         23.30199        19.03335         0.71823
C         24.54552        18.37838         0.51128
C         25.90883         2.28215         0.03000
C         25.88902         3.65129        -0.44714
C         27.14378         1.61268         0.17997
C         27.08771         4.31723        -0.72981
C         25.79178         6.38691        -1.19178
C         25.78426         7.80384        -1.39972
C         27.06921         5.71037        -1.09779
C         27.05677         8.49581        -1.62399
C         25.77079        10.67086        -1.02619
C         25.76964        12.01649        -0.62504
C         27.04529        10.03752        -1.37730
C         27.01757        12.68759        -0.22076
C         25.79784        14.84903        -0.10093
C         25.79169        16.26859         0.11640
C         27.04380        14.15610        -0.13998
C         27.02224        16.97780         0.17892
C         25.76381        19.08209         0.48970
C         27.00477        18.41156         0.34278
C         28.35819         2.22029        -0.17907
C         28.35274         3.61035        -0.62892
C         29.56685         1.49913        -0.11097
C         29.52987         4.21682        -1.01112
C         28.29225         6.38419        -1.31426
C         28.34930         7.79404        -1.49375
C         29.55188         5.60441        -1.60349
C         29.56235         8.50560        -1.57399
C         28.30975        10.65676        -1.08018
C         28.34892        11.95568        -0.43613
C         29.52877         9.99846        -1.56943
C         29.59862        12.74102        -0.41185
C         28.27141        14.84517        -0.02943
C         28.26148        16.27923         0.09473
C         29.54048        14.14993        -0.07331
C         29.48438        17.00756         0.14444
C         28.22443        19.11685         0.36593
C         29.46555        18.44403         0.26806
C         30.79360         2.06872        -0.51243
C         30.77179         3.43219        -1.08069
C         32.01136         1.40395        -0.37473
C         32.08761         4.18173        -1.22472
C         30.84125         6.36038        -1.29588
C         30.83900         7.83209        -1.38751
C         32.01754         5.66721        -1.18153
C         32.03540         8.53506        -1.27929
C         30.81484        10.77953        -1.39931
C         30.78712        12.09572        -0.71482
C         32.10636        10.00905        -1.42799
C         32.04753        12.70196        -0.27970
C         30.73168        14.89280         0.02531
C         30.72950        16.32037         0.09569
C         32.01571        14.19463         0.12509
C         31.96123        17.04176         0.15403
C         30.68707        19.14748         0.31497
C         31.93232        18.47672         0.26008
C         33.26557         2.07930        -0.49557
C         33.32135         3.48491        -0.79437
C         34.45955         1.39863        -0.20174
C         34.53059         4.17458        -0.66547
C         33.32243         6.37984        -1.21599
C         33.28271         7.83157        -0.78750
C         34.59795         5.60744        -1.03726
C         34.59492         8.59042        -0.91022
C         33.38418        10.72851        -1.10219
C         33.34276        12.12712        -0.62958
C         34.61259         9.95625        -0.78957
C         34.51794        12.81896        -0.36156
C         33.27505        14.93581         0.02294
C         33.22301        16.36736         0.09440
C         34.49281        14.24662        -0.09466
C         34.43434        17.09788         0.15916
C         33.14824        19.19304         0.32848
C         34.39816        18.53294         0.29878
C         35.67976         2.09066        -0.04467
C         35.70776         3.51579        -0.20723
C         36.87580         1.39581         0.28696
C         36.90185         4.23959         0.13428
C         35.88930         6.34489        -0.78255
C         35.87745         7.86256        -0.79447
C         36.98267         5.67815        -0.05280
C         37.04813         8.57682        -0.25762
C         35.82279        10.70197        -0.49997
C         35.78718        12.11359        -0.37211
C         37.03356        10.00247        -0.23394
C         36.99177        12.83467        -0.14437
C         35.73594        14.97474        -0.06745
C         35.69743        16.41839         0.10394
C         36.95151        14.26984        -0.11651
C         36.87888        17.15625         0.27766
C         35.60452        19.25324         0.42635
C         36.85861        18.59032         0.46541
C         38.04530         2.09347         0.58296
C         38.02218         3.52389         0.58998
C         39.27990         1.40596         0.90210
C         39.19154         4.23550         1.12023
C         38.10991         6.41966         0.29743
C         38.18878         7.85340         0.12228
C         39.23587         5.76370         0.98790
C         39.41160         8.56186         0.42697
C         38.23658        10.71853         0.04518
C         38.22973        12.13967         0.02268
C         39.44183         9.98755         0.32529
C         39.46746        12.86147         0.22034
C         38.22783        14.99201        -0.13462
C         38.17641        16.49582         0.10192
C         39.48575        14.28065         0.17138
C         39.38848        17.13115         0.67414
C         38.05682        19.31792         0.58720
C         39.32915        18.65539         0.86375
C         40.43498         2.08086         1.17833
C         40.46508         3.51678         1.26019
C         41.62856         4.24271         1.46067
C         40.55266         6.41950         1.02244
C         40.59928         7.85198         0.77613
C         41.66632         5.65747         1.34823
C         41.79724         8.57992         0.94135
C         40.66231        10.69726         0.52604
C         40.67924        12.14601         0.43829
C         41.83089         9.95940         0.81243
C         41.87882        12.88437         0.56821
C         40.68983        15.00408         0.35053
C         40.69248        16.46542         0.47813
C         41.88507        14.26739         0.52942
C         41.83140        17.23273         0.57401
C         40.61002        19.35832         0.76773
C         41.77976        18.66356         0.68205
O         16.37163        11.67236         1.43936
O         13.50278        11.79019        -2.13395
O          4.47235        17.69310         1.55426
O         32.01685        13.13381         1.13042
O          5.92365         6.48162        -1.70559
O          7.73741         3.40251        -0.70519
O         31.44572         3.56161        -2.39509
O         36.30042         7.07308        -1.97638
O         11.56798         8.45776         0.74464
O         30.14702        10.73576        -2.70239
O          9.77367         9.04239        -2.23410
O         34.08153         5.95291        -2.37264
O         38.37571        15.95652        -1.24407
O          3.14222         6.95996         1.90509
O         16.81869         4.31131        -1.89716
O          4.11903         3.74980         3.42678
O         19.23841        13.81613         2.21700
O         14.33231         4.54170         1.77408
O         15.13680        16.19115         2.64154
O          3.72752        10.25717         0.30491
O         39.21244        17.69127         1.99800
O         21.51422         3.15011        -1.97602
O         27.01930         9.43466        -2.72322
O         20.69224         6.95526        -2.76303
O         32.98021        10.50680        -2.51256
O         22.84773         8.35608        -3.01759
O         19.24806        16.35625         2.69944
O          1.90625         8.92563        -1.80403
O         38.86452         5.11783         2.25045
O         27.67533        11.99204         0.89394
O         15.07754         9.86475        -2.76634
H         14.78621        10.73194        -3.13098
O         18.60353         7.24011         0.53155
H         18.56643         8.06934         1.05542
O         21.50582        13.00388        -1.93989
H         22.20415        13.46440        -2.45043
O         21.44463        11.56032         1.43868
H         20.95406        12.13862         2.06223
O          8.45313        15.76292         2.33130
H          7.52771        15.52792         2.55901
O         33.11253         7.70907         0.68235
H         33.01714         8.61046         1.05815
O          4.45636         8.42856        -2.52220
H          4.77166         7.55940        -2.86308
O          9.81922        14.69737        -1.77923
H         10.55221        14.20282        -2.20744
O         18.11775         6.46567        -2.98985
H         17.84877         5.61844        -3.40550
O         29.55012         5.42241        -3.05927
H         30.29157         4.79933        -3.26353
H          0.48828         2.04503         2.92356
H          0.36409         4.36196         2.13503
H          2.63362         0.81259         2.98389
H          0.17218         5.81522         0.87670
H          0.04886         7.67852        -0.72080
H          0.70071        10.59729        -3.17270
H          0.85696        13.06057        -3.00314
H          0.59091        14.85601        -2.24892
H          0.59393        17.26529        -1.73159
H          1.76701        19.27266        -1.01365
H          5.10143         0.74377         2.51305
H          3.76980        20.41713        -0.16023
H          7.47105         0.70258         2.18795
H          6.26643        20.24652         0.36439
H          9.95020         0.62317         1.91514
H          8.59328        20.11356         0.98473
H         12.36159         0.57601         1.66567
H         11.03617        20.06564         1.13732
H         14.90567         0.64684         1.67117
H         13.49541        20.04478         1.24167
H         17.39723         0.70363         1.54160
H         15.97325        19.98488         1.41630
H         19.85582         0.74296         1.39185
H         18.37099        19.99186         1.33233
H         22.30468         0.64541         0.99798
H         20.83506        20.08185         1.01555
H         24.73587         0.60853         0.75601
H         23.28861        20.12746         0.83234
H         27.14696         0.56921         0.52824
H         25.75963        20.17398         0.62355
H         29.55405         0.46729         0.27017
H         28.21401        20.21078         0.48098
H         32.01387         0.36194        -0.02168
H         30.67323        20.24347         0.40822
H         34.43261         0.31252        -0.03034
H         33.12178        20.28819         0.42728
H         36.86413         0.29701         0.33311
H         35.57086        20.34692         0.53643
H         39.27900         0.30663         0.87290
H         38.02738        20.41681         0.54489
H         41.36800         1.52740         1.36092
H         42.57430         3.70622         1.62626
H         42.64915         6.13956         1.44313
H         42.72769         8.05485         1.19466
H         42.78901        10.47367         0.96282
H         42.83396        12.36377         0.71600
H         42.83820        14.79596         0.66428
H         42.82332        16.76963         0.47954
H         40.60679        20.45684         0.71411
H         42.73066        19.21315         0.63190
