         410
 CSIRO Nanostructure Databank - Neutral Graphene Oxide Data Set
C         27.85723        27.30040        -0.50841
C         27.87639        28.70456        -0.32277
C         26.64230        29.44238        -0.31187
C         27.84956        31.56080        -0.27550
C         26.64143        30.81630        -0.36121
C         27.87954        32.97073        -0.33778
C         26.66016        33.73137        -0.58726
C         27.77438        35.88994        -0.16402
C         26.59868        35.07783        -0.52619
C         27.79481        37.37544        -0.43294
C         26.66486        38.14171        -1.01476
C         27.95871        40.24468        -0.83010
C         26.77042        39.47953        -1.19337
C         27.97454        41.65426        -0.88323
C         26.94659        42.45169        -1.48230
C         28.20293        44.53114        -1.08901
C         27.04114        43.81876        -1.55302
C         28.30753        45.93965        -1.19776
C         30.28966        27.27515        -0.63340
C         29.03914        26.60611        -0.64834
C         30.33026        28.67882        -0.38804
C         29.11015        29.37913        -0.22402
C         30.38008        31.55636        -0.15569
C         29.09903        30.83143         0.16429
C         30.36497        32.97236        -0.14964
C         29.10455        33.66503        -0.14848
C         30.38689        35.85643        -0.07886
C         29.07545        35.13197         0.02650
C         30.39556        37.28276        -0.51905
C         29.12096        38.04175        -0.65517
C         30.38192        40.13961        -0.26074
C         29.16047        39.51796        -0.52903
C         30.38840        41.56742         0.04847
C         29.10608        42.37342        -0.28431
C         30.47173        44.47133        -0.12508
C         29.27253        43.81367        -0.50890
C         30.54383        45.89061        -0.20898
C         29.43420        46.59782        -0.73807
C         32.63096        24.52727        -1.61613
C         31.47315        25.19433        -1.26939
C         32.77074        27.23351        -0.82663
C         31.51707        26.55518        -0.88929
C         32.79286        28.65919        -0.57349
C         31.59879        29.37257        -0.36185
C         32.82451        31.53409        -0.19244
C         31.60311        30.83167        -0.22672
C         32.85638        32.96478        -0.21344
C         31.61812        33.69039        -0.22023
C         32.85858        35.82701        -0.29027
C         31.64751        35.10537        -0.25626
C         32.86571        37.28203        -0.21941
C         31.65896        38.01678        -0.31519
C         32.86441        40.12564         0.00164
C         31.63753        39.42055        -0.20691
C         32.86561        41.55567         0.13154
C         31.65934        42.29710         0.11447
C         32.88417        44.38712         0.49404
C         31.66126        43.70932         0.19558
C         32.90512        45.83295         0.60320
C         31.75120        46.57711         0.22093
C         32.98916        48.64243         0.61350
C         31.82298        47.98706         0.25576
C         35.92675        22.70740        -0.69025
C         35.85721        24.06907        -1.00423
C         33.86650        25.19036        -1.53074
C         35.30122        27.21485        -1.05047
C         33.97908        26.51960        -1.08962
C         35.27524        28.67930        -0.76442
C         34.07081        29.33978        -0.57217
C         35.39083        31.51723        -0.12302
C         34.08731        30.76455        -0.15742
C         35.40536        33.02795         0.08886
C         34.08290        33.69093        -0.24533
C         35.34516        35.81061        -0.22565
C         34.09170        35.09957        -0.29154
C         35.32450        37.22652         0.11053
C         34.07715        37.98868        -0.02040
C         35.34778        40.13023         0.12503
C         34.09252        39.40396         0.06358
C         35.33471        41.53362         0.31056
C         34.09506        42.24353         0.35350
C         35.29026        44.25068         1.16077
C         34.07064        43.63495         0.61536
C         35.25993        45.73830         1.46145
C         34.08856        46.51601         0.99748
C         35.40068        48.63672         1.29272
C         34.15207        47.92885         0.98063
C         35.45062        50.04928         1.36501
C         37.89271        23.14223         0.66759
C         36.93303        22.25423         0.15845
C         37.79216        24.52033         0.36811
C         36.73124        25.01294        -0.43552
C         37.79332        27.30509        -0.40606
C         36.62606        26.46601        -0.77460
C         37.74043        28.71131        -0.71201
C         36.53557        29.40481        -0.77476
C         37.72270        31.58814        -0.99662
C         36.57994        30.85676        -0.69973
C         37.76731        33.04631        -0.85939
C         36.60254        33.73532        -0.50769
C         37.80366        35.90944        -0.63973
C         36.58377        35.16049        -0.42781
C         37.84196        37.31444        -0.51249
C         36.66672        38.01597        -0.00045
C         37.78732        40.19624        -0.33859
C         36.58874        39.47067        -0.09362
C         37.81313        41.59635         0.05038
C         36.58323        42.24087         0.48310
C         37.83681        44.21129         1.31873
C         36.57373        43.54820         0.97028
C         37.86435        45.68502         1.62293
C         36.56394        46.45822         1.67287
C         37.84736        48.58900         1.62466
C         36.60078        47.92145         1.48869
C         37.86298        50.01014         1.72219
C         36.63913        50.71130         1.61704
C         39.98678        21.06978         3.09556
C         38.92525        21.48607         2.36077
C         40.21443        23.47683         1.67364
C         39.13537        22.51517         1.27411
C         40.14731        24.89723         1.34479
C         38.87934        25.44923         0.77115
C         40.11807        27.67140         0.48099
C         38.93619        26.78088         0.14015
C         40.26071        28.85105        -0.45713
C         39.00600        29.39053        -1.00386
C         40.24812        31.59401        -1.49959
C         38.94464        30.86680        -1.39310
C         40.19724        33.09115        -1.55142
C         38.96172        33.79579        -1.15173
C         40.22283        35.96359        -1.17593
C         38.99325        35.20020        -1.01174
C         40.19148        37.39358        -1.23087
C         39.00008        38.08463        -0.88059
C         40.12682        40.34012        -1.16141
C         38.96216        39.51928        -0.76267
C         40.14781        41.80805        -0.74474
C         39.00550        42.31127         0.03588
C         40.33233        44.40022         0.63526
C         39.11635        43.56838         0.78056
C         40.32040        45.76920         1.05797
C         39.11268        46.44417         1.39507
C         40.32142        48.58276         1.52775
C         39.09340        47.85081         1.56217
C         40.31664        50.00158         1.69656
C         39.11842        50.71059         1.88343
C         40.31796        52.74863         2.57128
C         39.15374        52.07305         2.35827
C         42.43564        21.22885         3.62638
C         41.28157        21.71768         2.99282
C         42.58009        23.73752         2.31395
C         41.35104        22.98431         2.32143
C         42.64138        24.98719         1.61913
C         41.41647        25.63027         1.16947
C         42.66042        27.59664         0.41451
C         41.41975        26.91114         0.64359
C         42.68925        28.90781        -0.05712
C         41.45482        29.52940        -0.52571
C         42.75216        31.69863        -0.86167
C         41.53709        30.88550        -1.12885
C         42.74959        33.08590        -1.05787
C         41.51332        33.82881        -1.40481
C         42.69859        35.98422        -1.20882
C         41.46075        35.27829        -1.17365
C         42.69198        37.35404        -1.58281
C         41.42300        38.13170        -1.64879
C         42.68228        40.47085        -1.32369
C         41.42507        39.68007        -1.57069
C         42.70404        41.72805        -0.67565
C         41.45999        42.59903        -0.76029
C         42.74771        44.47184         0.27420
C         41.50016        43.80660         0.14969
C         42.76602        45.81911         0.73793
C         41.54768        46.50094         1.04025
C         42.80829        48.59441         1.42288
C         41.55617        47.89602         1.32360
C         42.85634        49.99423         1.67722
C         41.58866        50.73212         1.63292
C         42.87544        52.74769         2.55628
C         41.59111        52.21946         2.08481
C         43.64467        21.91612         3.54304
C         45.02212        23.83706         2.67856
C         43.75348        23.16329         2.87020
C         45.07604        25.04566         1.91804
C         43.87328        25.61436         1.40668
C         45.18645        27.59470         0.56131
C         43.92708        26.77883         0.45443
C         45.17529        28.95689         0.11296
C         43.94967        29.61580        -0.19242
C         45.18911        31.73530        -0.53581
C         43.95746        31.00776        -0.52285
C         45.16557        33.14971        -0.68678
C         43.95612        33.84072        -0.89257
C         45.14994        36.00714        -1.19032
C         43.94206        35.28258        -1.09320
C         45.17181        37.35702        -1.61183
C         43.92176        37.88757        -1.99293
C         45.18161        40.39199        -1.24382
C         43.93095        39.98104        -1.75799
C         45.17007        41.63466        -0.56386
C         43.95063        42.34401        -0.37223
C         45.19533        44.42341         0.13217
C         43.98569        43.75110         0.03345
C         45.21243        45.88445         0.30875
C         43.99381        46.53660         0.82511
C         45.29909        48.54728         1.53410
C         44.01798        47.87389         1.22751
C         45.32324        50.00180         1.77066
C         44.07579        50.69390         1.88582
C         44.03244        52.06199         2.36194
C         47.45431        23.85425         2.81119
C         46.23752        23.28077         3.14129
C         47.52608        25.03972         2.05054
C         46.33848        25.66051         1.62542
C         47.63028        27.62492         0.75052
C         46.36676        26.95882         0.95172
C         47.62818        28.94255         0.20424
C         46.42698        29.65204        -0.03113
C         47.65961        31.74694        -0.65020
C         46.43618        31.04537        -0.39673
C         47.69349        33.12778        -0.87566
C         46.44413        33.88068        -0.66852
C         47.61177        35.95767        -1.68367
C         46.44050        35.35190        -0.94062
C         47.64064        37.46537        -1.53755
C         46.40144        38.16888        -1.56613
C         47.66622        40.24976        -1.15303
C         46.40373        39.58678        -1.37243
C         47.70054        41.60712        -0.70404
C         46.46506        42.22514        -0.19676
C         47.75805        44.45451        -0.03976
C         46.48438        43.71811         0.14074
C         47.79659        45.84908         0.22562
C         46.53764        46.58693         0.40535
C         47.84592        48.64147         1.11394
C         46.59940        47.85982         1.18426
C         47.78403        49.97998         1.53942
C         46.57956        50.62832         1.84393
C         50.08314        25.21466         2.35168
C         48.85687        25.52910         1.52690
C         50.10612        27.56414         0.82346
C         48.84073        26.97854         1.11946
C         50.11776        28.70878        -0.02348
C         48.92787        29.59727        -0.04607
C         50.13281        31.72512        -1.08753
C         48.94676        31.02604        -0.52548
C         50.16437        33.13355        -1.14289
C         48.90978        33.87172        -1.10927
C         50.12408        35.97862        -1.59549
C         48.90862        35.25114        -1.37391
C         50.11387        37.37751        -1.65453
C         48.88171        38.13351        -1.50087
C         50.15545        40.27373        -1.22953
C         48.90703        39.55378        -1.32270
C         50.14319        41.67467        -0.98569
C         48.91341        42.34318        -0.66603
C         50.16141        44.56405        -0.69009
C         48.92484        43.75265        -0.37066
C         50.23436        45.91594        -0.01672
C         49.02453        46.57571         0.31291
C         50.28548        48.65459         0.67499
C         49.03612        47.97201         0.69513
C         51.26146        25.83926         2.10539
C         52.59009        27.56839         0.79233
C         51.34638        26.96640         1.19452
C         52.58839        28.65753        -0.14740
C         51.30804        29.00769        -0.65388
C         52.59022        31.63290        -1.35981
C         51.31617        31.06365        -1.42516
C         52.62846        33.04966        -1.41337
C         51.39842        33.76748        -1.41160
C         52.70695        35.90297        -1.85975
C         51.37690        35.19651        -1.76736
C         52.69097        37.39983        -1.81975
C         51.37143        38.14529        -1.77712
C         52.64695        40.23591        -1.33022
C         51.39837        39.56977        -1.37700
C         52.63962        41.70676        -1.27584
C         51.38754        42.41404        -0.90606
C         52.69283        44.40780        -0.11518
C         51.42384        43.75351        -0.60024
C         52.71251        45.91384        -0.12817
C         51.47331        46.60366         0.06419
C         51.45579        47.99792         0.39219
C         55.00494        27.73594         0.83224
C         53.85696        27.09708         1.23804
C         54.98031        28.91714         0.03128
C         53.76579        29.41328        -0.49080
C         55.11852        31.50441        -1.27437
C         53.79337        30.73689        -1.24396
C         55.11671        32.99856        -1.39584
C         53.90992        33.74103        -1.47774
C         55.18116        35.84238        -1.43356
C         53.95145        35.15751        -1.54417
C         55.19154        37.31669        -1.20391
C         53.89632        38.09342        -1.28793
C         55.15450        40.24042        -1.25262
C         53.90191        39.56935        -1.36377
C         55.21676        41.64603        -1.06387
C         53.97336        42.42623        -1.12782
C         55.18224        44.44321        -0.37984
C         53.97072        43.79076        -0.60467
C         55.16541        45.84357        -0.06713
C         53.96959        46.54710        -0.02354
C         56.22429        29.64361        -0.09427
C         56.29067        30.88074        -0.63346
C         56.33148        33.70058        -1.39700
C         56.36547        35.09431        -1.38224
C         56.41647        38.11168        -1.35866
C         56.37941        39.46622        -1.34171
C         56.41577        42.35783        -0.77850
C         56.41252        43.71199        -0.52342
O         52.04736        35.41009        -3.06685
O         39.74915        41.41198        -2.10483
O         49.18022        30.72003         0.92301
O         46.62723        34.89777         0.42281
O         54.38379        37.61331         0.00895
O         45.76284        46.65856        -0.84994
O         46.55983        42.69007         1.19178
O         43.93129        39.03823        -2.78418
O         27.53431        36.86445         0.91232
O         54.62896        30.76110        -2.44310
O         38.89642        29.83856        -2.41070
O         52.15459        37.97129        -3.03507
O         46.06248        47.76180         2.54299
O         29.42886        41.95446         1.07855
O         36.14341        37.53488         1.28056
O         53.27178        42.32440        -2.44652
O         40.89236        33.57591        -2.73283
O         29.80095        37.50519        -1.85710
O         36.19335        26.80325        -2.13173
O         34.88088        30.87285         1.10165
O         39.11726        25.58411         2.23838
O         41.09955        31.00936        -2.52156
O         41.28406        38.98539        -2.83884
O         34.95475        24.44838        -2.00050
O         38.70902        43.43173         2.19347
O         51.23777        29.73739        -1.83503
O         41.58610        51.84040         0.67605
O         29.78718        35.59635         1.23219
O         35.01098        44.77734         2.52253
O         37.23866        46.03605         2.90099
O         43.99274        26.15242        -0.89071
H         44.01394        26.87891        -1.55026
O         52.70632        44.05522         1.34203
H         53.43673        44.56845         1.75204
O         29.03003        30.83332         1.64897
H         29.01422        31.77197         1.93661
O         47.32433        35.67061        -3.09358
H         48.05222        36.04741        -3.63254
O         39.81369        28.24965         1.79654
H         39.56287        27.48499         2.37355
O         50.04181        44.89985        -2.13547
H         50.05686        44.05571        -2.63616
O         39.70967        21.75343         0.13472
H         40.52337        21.31118         0.46051
O         49.03377        24.77752         0.26057
H         49.88903        25.06386        -0.12645
O         35.57448        33.26065         1.52331
H         35.14427        32.49818         1.97977
O         41.56837        43.19870        -2.08753
H         41.10269        42.58809        -2.70939
H         26.89356        26.77333        -0.54953
H         25.69543        28.88671        -0.36748
H         25.68032        31.33621        -0.47169
H         25.74506        33.18067        -0.84115
H         25.64324        35.59258        -0.69923
H         25.71511        37.63116        -1.22977
H         25.89781        40.02823        -1.57504
H         26.05536        41.96068        -1.89690
H         26.22432        44.39788        -2.00745
H         27.47729        46.50999        -1.63802
H         28.99148        25.51884        -0.78585
H         29.47093        47.69193        -0.82291
H         32.60200        23.48805        -1.96725
H         30.51831        24.66019        -1.33890
H         32.99307        49.73983         0.60609
H         30.94639        48.59212        -0.00970
H         35.22392        22.00488        -1.15596
H         34.53482        50.64322         1.25037
H         37.02737        21.17974         0.36686
H         36.63086        51.80762         1.68093
H         39.87569        20.24570         3.81669
H         37.94924        20.98782         2.45599
H         40.31610        53.70258         3.11896
H         38.21179        52.53036         2.69250
H         42.38944        20.27728         4.17568
H         42.88722        53.71935         3.07214
H         44.53020        21.47151         4.01666
H         44.97368        52.52336         2.69160
H         48.37719        23.35698         3.13878
H         46.23326        22.35473         3.73143
H         48.70450        50.57820         1.58790
H         46.63371        51.69834         2.08814
H         50.06192        24.37397         3.05960
H         50.32382        49.72462         0.91886
H         52.16662        25.51407         2.63909
H         52.39610        48.56346         0.42194
H         55.98160        27.37506         1.18688
H         53.92323        26.23225         1.91167
H         56.11990        46.37542         0.04687
H         54.02131        47.63838         0.09256
H         57.12003        29.19890         0.36415
H         57.23759        31.43477        -0.58205
H         57.28700        33.16068        -1.38627
H         57.33813        35.60101        -1.32603
H         57.37301        37.59811        -1.52904
H         57.32656        40.01163        -1.45307
H         57.37680        41.82569        -0.77690
H         57.36122        44.23913        -0.34964
