         630
 CSIRO Nanostructure Databank - Neutral Graphene Oxide Data Set
C         22.93368        27.50353        -0.85933
C         22.92426        28.87059        -0.70776
C         22.93988        31.80008        -0.49296
C         22.95342        33.18595        -0.44809
C         23.01031        36.07804        -0.04492
C         23.02617        37.45845         0.05878
C         23.03883        40.37133         0.30255
C         23.09436        41.71129         0.65908
C         23.25184        44.57461         1.50145
C         23.32144        45.84896         2.06339
C         25.38983        24.71905        -1.27768
C         24.18261        25.39090        -1.16689
C         25.39271        27.49130        -0.79560
C         24.16268        26.78615        -0.92875
C         25.37626        28.91283        -0.66305
C         24.13741        29.61194        -0.62971
C         25.37818        31.76083        -0.55018
C         24.13975        31.05447        -0.54332
C         25.38838        33.18750        -0.56002
C         24.16132        33.90996        -0.48317
C         25.35692        36.09168        -0.69698
C         24.17137        35.36641        -0.41015
C         25.37346        37.50135        -0.58676
C         24.19916        38.19603        -0.19924
C         25.45839        40.31061         0.16959
C         24.21919        39.64021         0.05695
C         25.52436        41.60912         0.71579
C         24.32747        42.34112         0.92416
C         25.57038        44.14566         2.05705
C         24.37244        43.70424         1.45945
C         25.49548        45.29208         2.85372
C         24.47639        46.25701         2.77340
C         25.91345        48.21117         3.48171
C         24.70057        47.58720         3.32423
C         27.87440        23.28149        -0.47121
C         27.87191        24.54846        -1.29745
C         26.61824        25.37542        -1.07373
C         27.86392        27.48597        -0.64695
C         26.63438        26.77424        -0.83337
C         27.84757        28.91016        -0.51431
C         26.61493        29.62745        -0.58682
C         27.85698        31.76309        -0.58344
C         26.62121        31.05146        -0.56583
C         27.85720        33.19416        -0.72703
C         26.62675        33.88184        -0.71987
C         27.88539        36.04124        -1.28291
C         26.56974        35.31707        -1.06004
C         27.87891        37.55228        -1.27660
C         26.59421        38.28409        -0.93894
C         27.97493        40.45853        -0.41049
C         26.65461        39.72832        -0.49364
C         28.09143        41.65671         0.46840
C         26.84824        42.16992         1.10526
C         28.14453        44.30598         1.56397
C         26.88846        43.46249         1.86272
C         28.36104        45.63901         2.27245
C         27.39206        46.28742         3.04988
C         28.32427        48.47074         2.64641
C         27.21745        47.68141         3.10429
C         28.32838        49.89589         2.70798
C         30.31389        23.16827        -0.49089
C         29.00520        22.57257        -0.27351
C         30.36552        24.56575        -0.63322
C         29.20756        25.37047        -1.20065
C         30.27572        27.42881        -0.26681
C         29.11387        26.76737        -0.59642
C         30.28676        28.88821         0.11030
C         29.06044        29.63296        -0.34776
C         30.34637        31.74125        -0.47268
C         29.08186        31.03439        -0.45178
C         30.35578        33.15566        -0.66503
C         29.11653        33.90996        -0.82055
C         30.36701        36.05136        -0.99512
C         29.13624        35.30721        -0.99957
C         30.43211        37.44963        -0.98001
C         29.20551        38.26290        -1.15407
C         30.52106        40.29099        -0.25176
C         29.24658        39.72654        -0.74748
C         30.55240        41.58957         0.29445
C         29.31144        42.23150         0.71469
C         30.64651        44.31617         1.21423
C         29.43959        43.46491         1.60048
C         30.65155        45.71959         1.38936
C         29.48388        46.40232         1.90505
C         30.65144        48.57100         1.78129
C         29.49179        47.81118         2.14377
C         30.63675        49.98783         1.89814
C         29.44032        50.62116         2.35394
C         32.76046        20.31833        -0.22560
C         31.56505        21.00300        -0.28604
C         32.77629        23.11774        -0.38137
C         31.53078        22.42320        -0.35509
C         32.79280        24.54823        -0.33329
C         31.58024        25.24704        -0.40534
C         32.82210        27.42368        -0.15717
C         31.53549        26.67453         0.06457
C         32.79332        28.87418        -0.24071
C         31.58857        29.58095        -0.25310
C         32.81239        31.69719        -0.57790
C         31.57182        31.00886        -0.43002
C         32.82625        33.11998        -0.68499
C         31.59309        33.82730        -0.75620
C         32.91251        36.00398        -1.05612
C         31.60773        35.26572        -1.07461
C         32.90123        37.45932        -0.84303
C         31.68471        38.15997        -0.81784
C         32.96773        40.21043        -0.22889
C         31.71824        39.56252        -0.46474
C         33.00962        41.58256         0.16260
C         31.79973        42.25609         0.46434
C         33.04616        44.39215         0.67665
C         31.82713        43.66359         0.80475
C         33.05011        45.80235         0.84033
C         31.83895        46.47447         1.16786
C         33.01177        48.64444         1.05338
C         31.83320        47.89867         1.33337
C         32.98235        50.06138         1.13759
C         31.81410        50.73504         1.54555
C         33.01697        52.88028         1.53052
C         31.84772        52.17071         1.66573
C         35.28590        18.91308         0.28665
C         35.28412        20.28687        -0.08327
C         34.01421        20.99543        -0.26336
C         35.24760        23.14856        -0.57918
C         33.99791        22.39596        -0.37100
C         35.26208        24.60344        -0.33028
C         34.04411        25.27335        -0.21290
C         35.29616        27.43915         0.15458
C         34.00702        26.71917        -0.12622
C         35.28420        28.87358        -0.29102
C         34.05670        29.56812        -0.38464
C         35.29114        31.67158        -0.68596
C         34.04978        30.98059        -0.56328
C         35.29486        33.11625        -0.80305
C         34.08057        33.80642        -0.73298
C         35.38429        35.97419        -0.93141
C         34.11728        35.28670        -0.50299
C         35.38495        37.38693        -0.87569
C         34.15665        38.10969        -0.68551
C         35.44684        40.16457        -0.27837
C         34.19233        39.50160        -0.42022
C         35.47762        41.55962         0.05156
C         34.27514        42.26395         0.26284
C         35.49447        44.41284         0.48014
C         34.29057        43.69861         0.46906
C         35.51489        45.84091         0.55001
C         34.26960        46.54834         0.70159
C         35.47242        48.69950         0.61715
C         34.24505        47.95683         0.75594
C         35.46662        50.10803         0.64835
C         34.15677        50.85271         0.60876
C         35.46787        52.94414         1.13172
C         34.24029        52.25405         1.16142
C         35.55785        54.32844         1.49320
C         37.70590        18.92538         0.59015
C         36.45209        18.25872         0.60969
C         37.74198        20.29809         0.19573
C         36.51860        20.96091        -0.15155
C         37.79409        23.16097        -0.34409
C         36.55280        22.38692        -0.53979
C         37.78401        24.54401        -0.33726
C         36.53243        25.30148        -0.30459
C         37.79421        27.43018        -0.17293
C         36.55301        26.69014        -0.21595
C         37.77899        28.83370        -0.19419
C         36.52222        29.55851        -0.35616
C         37.76304        31.72924        -0.65481
C         36.50213        30.96030        -0.57332
C         37.72583        33.04710        -1.36812
C         36.51569        33.83847        -1.06215
C         37.76836        35.97047        -1.74852
C         36.55621        35.23348        -1.18250
C         37.85610        37.39011        -1.21515
C         36.63065        38.08879        -0.86710
C         37.96472        40.07735        -0.14238
C         36.65126        39.44392        -0.50149
C         37.93391        41.58696        -0.17366
C         36.75173        42.24929         0.08328
C         38.00272        44.44011         0.16824
C         36.79154        43.66326         0.60793
C         37.99122        45.85072         0.26249
C         36.73464        46.55951         0.48324
C         37.92448        48.73245         0.40815
C         36.72169        47.99336         0.51224
C         37.92000        50.14268         0.39854
C         36.67508        50.83911         0.56905
C         37.90481        52.97683         0.67574
C         36.68331        52.26187         0.76029
C         37.94852        54.37125         0.99782
C         36.74293        55.00687         1.43722
C         40.09757        16.20502         1.59392
C         38.92928        16.86222         1.30207
C         40.16067        18.94018         0.86551
C         38.92689        18.24035         0.92304
C         40.18857        20.32292         0.47374
C         38.99653        20.98237         0.13923
C         40.29721        23.13968        -0.10770
C         39.06304        22.36292        -0.47701
C         40.29459        24.53834        -0.18852
C         39.03764        25.28379        -0.24409
C         40.31405        27.38473         0.04570
C         39.02954        26.66851        -0.13128
C         40.32495        28.88717         0.14668
C         38.98951        29.63812         0.27535
C         40.29663        31.59872        -0.91905
C         39.04280        31.06950        -0.28796
C         40.30515        32.95350        -1.55643
C         39.02027        33.74412        -1.65289
C         40.28820        35.87319        -1.56764
C         39.08202        35.21608        -1.58722
C         40.27855        37.36796        -1.80533
C         39.06066        38.05957        -1.22647
C         40.29812        40.19128        -0.99316
C         39.14165        39.45091        -0.84131
C         40.34673        41.58969        -0.61198
C         39.19747        42.29344        -0.24808
C         40.40661        44.48919        -0.24147
C         39.21057        43.74581        -0.08396
C         40.41058        45.90211        -0.16855
C         39.19749        46.57501         0.10724
C         40.40110        48.77860        -0.07481
C         39.24246        48.02212         0.51839
C         40.36156        50.18694        -0.13808
C         39.13481        50.88632         0.18092
C         40.27753        53.08691        -0.01277
C         39.11326        52.30221         0.27838
C         40.29199        54.46085         0.25173
C         39.16730        55.09224         0.87672
C         40.48096        57.11956         1.33783
C         39.29468        56.43634         1.37350
C         42.56262        16.20469         1.80876
C         41.34971        16.88186         1.52455
C         42.63895        18.93887         1.09566
C         41.38318        18.25771         1.16257
C         42.66813        20.33469         0.74347
C         41.46471        21.01424         0.43277
C         42.74225        23.11238         0.17410
C         41.49757        22.41725         0.15408
C         42.75085        24.50180        -0.11000
C         41.55103        25.23452        -0.21131
C         42.76833        27.39340        -0.24175
C         41.57862        26.67473        -0.25280
C         42.80526        28.83488        -0.24049
C         41.56932        29.59090        -0.25975
C         42.79800        31.66390        -0.83570
C         41.57889        30.93205        -0.60884
C         42.81854        33.01521        -1.14120
C         41.62330        33.70033        -1.78052
C         42.76994        35.88373        -1.39128
C         41.56695        35.18884        -1.50205
C         42.76938        37.35021        -1.37630
C         41.57645        38.03991        -1.44578
C         42.82604        40.24611        -1.49278
C         41.52301        39.51509        -1.49738
C         42.85823        41.66638        -1.09962
C         41.64973        42.27922        -0.54685
C         42.89961        44.52418        -0.72789
C         41.69218        43.78068        -0.32466
C         42.87319        45.94256        -0.71257
C         41.64899        46.65067        -0.36302
C         42.83583        48.83598        -0.52392
C         41.59909        48.05733        -0.33447
C         42.75266        50.29867        -0.75135
C         41.52869        50.93505        -0.53462
C         42.68077        53.19995        -0.99170
C         41.43500        52.41247        -0.65717
C         42.74197        54.66003        -0.62977
C         41.47521        55.30357        -0.04574
C         42.85619        57.21772         0.67552
C         41.62950        56.57208         0.68464
C         43.76968        16.86711         1.74105
C         45.11223        18.94177         1.34520
C         43.83982        18.24220         1.38927
C         45.14658        20.33004         1.04037
C         43.92585        21.02921         0.73411
C         45.22052        23.11997         0.47014
C         43.96460        22.41125         0.43760
C         45.26442        24.50341         0.17969
C         44.04296        25.17490        -0.27928
C         45.28543        27.39782         0.00551
C         44.05255        26.69153        -0.38534
C         45.26485        28.84246        -0.06480
C         44.02885        29.50335        -0.35012
C         45.30077        31.68576        -0.51587
C         44.08628        30.89431        -0.90136
C         45.28785        33.09301        -0.75970
C         44.06042        33.76732        -1.08769
C         45.26796        35.91092        -1.12187
C         44.03853        35.17639        -1.23311
C         45.27010        37.34788        -1.19114
C         44.04158        38.06681        -1.29731
C         45.28029        40.20074        -1.21007
C         44.06900        39.47417        -1.33688
C         45.27806        41.64940        -1.39220
C         44.02642        42.37448        -1.23846
C         45.22353        44.53757        -1.53992
C         44.06411        43.82834        -1.11484
C         45.21779        45.94046        -1.53344
C         44.05015        46.62936        -1.11298
C         45.16372        48.90313        -1.56474
C         44.06749        48.09457        -0.97536
C         45.18148        50.33132        -1.19000
C         43.97210        51.00689        -1.01054
C         45.25706        53.16468        -0.83243
C         43.99198        52.49046        -1.32716
C         45.27648        54.53791        -0.49296
C         44.03396        55.28878        -0.30208
C         44.03165        56.57464         0.21682
C         47.54238        18.95450         1.60316
C         46.33265        18.28095         1.61694
C         47.61022        20.33890         1.32923
C         46.39653        21.02916         1.04870
C         47.66532        23.15442         0.81359
C         46.42921        22.43716         0.78532
C         47.67359        24.55771         0.63413
C         46.45633        25.24361         0.34373
C         47.61770        27.39941         0.90037
C         46.43195        26.68821         0.29586
C         47.63772        28.91319         0.64508
C         46.43777        29.59102         0.12767
C         47.72730        31.72953        -0.15433
C         46.47333        31.01152        -0.14414
C         47.74062        33.13049        -0.45028
C         46.50912        33.82000        -0.69282
C         47.74578        35.94958        -0.87963
C         46.50115        35.23284        -0.90997
C         47.75718        37.36544        -0.99909
C         46.49899        38.06471        -1.11192
C         47.73486        40.22220        -0.92331
C         46.48437        39.48304        -1.09257
C         47.71394        41.74024        -1.27297
C         46.43664        42.35521        -1.63434
C         47.66864        44.47271        -2.39906
C         46.31640        43.73629        -2.25395
C         47.69143        45.98268        -2.37279
C         46.30084        46.68758        -2.32228
C         47.68514        48.86114        -1.62932
C         46.41179        48.19821        -2.01964
C         47.62630        50.24894        -1.27636
C         46.44053        51.00201        -1.22762
C         47.70857        53.12525        -0.88144
C         46.46990        52.44609        -0.96535
C         47.71643        54.48931        -0.57225
C         46.52777        55.17011        -0.32810
C         50.10524        20.39690         1.57096
C         48.87435        21.05675         1.31999
C         50.14565        23.15753         1.03027
C         48.90041        22.45006         1.05790
C         50.17365        24.56216         0.72513
C         48.92712        25.29176         0.60555
C         50.11746        27.42343         0.22032
C         48.90432        26.68261         0.54052
C         50.18872        28.88215         0.31258
C         48.95252        29.64809         0.47068
C         50.19166        31.70775        -0.15247
C         48.94876        31.04562         0.00582
C         50.21000        33.11901        -0.36034
C         48.98002        33.82882        -0.49251
C         50.19961        35.97488        -0.66702
C         48.97996        35.25605        -0.69795
C         50.23448        37.37331        -0.87089
C         48.99613        38.07013        -1.00819
C         50.18412        40.22478        -1.22679
C         49.00428        39.50745        -1.06496
C         50.16009        41.64118        -1.46519
C         48.98225        42.35466        -1.61860
C         50.21337        44.49891        -2.08386
C         48.97043        43.66522        -2.37973
C         50.30673        45.99541        -1.98680
C         48.97901        46.75538        -2.08448
C         50.09694        48.75008        -1.04021
C         48.88213        48.13029        -1.52731
C         50.12002        50.13956        -0.79509
C         48.84979        50.93808        -0.72876
C         50.25439        53.00432        -0.79307
C         48.97087        52.36613        -1.26508
C         51.30405        21.08170         1.57418
C         52.61800        23.19959         1.33942
C         51.36319        22.47361         1.30795
C         52.62993        24.59382         1.04744
C         51.40721        25.24207         0.69776
C         52.68676        27.41986         0.46140
C         51.45652        26.64175         0.27618
C         52.65090        28.84431         0.24341
C         51.40731        29.55293         0.11346
C         52.65892        31.67729        -0.17666
C         51.42537        30.98914        -0.04165
C         52.68246        33.11275        -0.31759
C         51.46788        33.80218        -0.37186
C         52.76596        36.02307        -0.45690
C         51.44816        35.27391        -0.33444
C         52.73497        37.42636        -0.90960
C         51.50142        38.07066        -1.01559
C         52.78824        40.25923        -1.49868
C         51.44990        39.48415        -1.42493
C         52.75550        41.71919        -1.34234
C         51.42621        42.43830        -1.33251
C         52.97638        44.69035        -1.13232
C         51.33739        43.73586        -2.10885
C         52.50938        45.88560        -0.58607
C         51.39365        46.60994        -1.12362
C         52.35706        48.61596        -0.00988
C         51.27261        47.97165        -0.75325
C         52.39326        50.05536         0.09287
C         51.29591        50.81128        -0.37196
C         51.30275        52.26981        -0.37230
C         55.03377        23.30009         1.70217
C         53.85119        22.57542         1.64034
C         55.07359        24.68628         1.44079
C         53.86283        25.33410         1.06032
C         55.18332        27.44872         0.54060
C         53.86620        26.73644         0.75548
C         55.06418        28.92825         0.88282
C         53.85664        29.58771         0.26557
C         55.17790        31.58412        -0.44645
C         53.87493        30.94874        -0.04041
C         55.15421        33.09040        -0.43539
C         53.96845        33.81863        -0.42548
C         55.23392        35.96550        -0.74338
C         54.00572        35.25134        -0.59356
C         55.25395        37.41634        -0.87891
C         54.00338        38.11783        -1.03223
C         55.20865        40.24320        -0.85293
C         54.01677        39.52338        -1.15757
C         55.10416        41.64991        -0.55748
C         53.88812        42.37459        -0.84545
C         54.81618        44.35985         0.36722
C         53.85919        43.78116        -0.50948
C         54.60738        45.69512         0.84128
C         53.23819        46.35952         0.65895
C         54.26566        48.49516         1.58838
C         53.32554        47.86404         0.65359
C         54.34446        49.95624         1.56955
C         53.47619        50.67701         0.81306
C         57.46502        24.88631         2.21813
C         56.30505        25.46526         1.62815
C         57.49931        27.61568         1.51121
C         56.33921        26.82582         1.28364
C         57.54171        29.01832         1.16583
C         56.35864        29.67500         0.69421
C         57.60663        31.74060         0.32251
C         56.38299        30.99053         0.26441
C         57.65335        33.09015        -0.12821
C         56.46002        33.74843        -0.78230
C         57.68952        35.93361        -0.72524
C         56.44912        35.25133        -0.65310
C         57.72585        37.34632        -0.97825
C         56.49346        38.12975        -0.93541
C         57.62221        40.41789        -0.52236
C         56.46597        39.57564        -0.81295
C         57.46033        41.69521         0.10557
C         56.17357        42.32010         0.07292
C         57.11060        44.33580         1.20165
C         56.02294        43.65768         0.58312
C         56.91295        45.66286         1.68978
C         55.63376        46.30817         1.55633
C         56.63176        48.32803         2.70213
C         55.44832        47.66086         2.13358
C         58.61122        25.62812         2.41432
C         59.84862        27.77465         2.22075
C         58.65914        27.00162         2.05977
C         59.89661        29.08927         1.82813
C         58.74683        29.74790         1.28658
C         59.96358        31.90602         0.95402
C         58.77876        31.13082         0.86843
C         60.00264        33.20308         0.48877
C         58.85256        33.80798        -0.08263
C         60.12799        35.76233        -0.91840
C         58.90555        35.17935        -0.58832
C         60.16008        37.08113        -1.37714
C         58.99393        37.84569        -1.37554
C         60.05708        40.81476        -0.46714
C         58.94337        40.09902        -0.90701
C         59.88014        41.93105         0.35215
C         58.58850        42.42476         0.60204
C         59.44725        44.41999         1.87114
C         58.39638        43.71847         1.25392
C         59.25372        45.70375         2.38448
C         58.01079        46.34882         2.28464
C         57.83029        47.70124         2.76977
O         52.11331        35.82609         0.86167
O         44.18015        25.85679        -1.58063
O         27.05226        42.22656         2.61061
O         45.52767        48.86812        -2.98417
O         47.74103        45.26417        -3.63466
O         52.10628        39.76304        -2.70412
O         26.51607        45.48599         3.78842
O         40.49469        28.06567         1.36307
O         32.39606        35.53937        -2.32154
O         54.23315        47.84864         2.93992
O         52.55268        44.34251        -2.41480
O         41.90616        42.85489         0.79841
O         35.92126        22.72643        -1.82950
O         40.20806        31.75301        -2.39357
O         43.90087        48.48435         0.44327
O         50.78857        26.91428        -0.99204
O         49.94382        46.72475        -3.19661
O         41.68667        52.92030        -2.02798
O         42.08614        40.04503        -2.76054
O         48.26632        29.57355         1.80503
O         59.14658        39.13300        -1.89557
O         27.09338        40.64886        -1.55728
O         47.70904        41.23516         0.11967
O         38.42443        31.99898         0.65279
O         41.84757        55.45089        -1.45866
O         29.36475        39.32328        -2.14588
O         38.16805        33.21260        -2.75311
O         27.02848        38.09521        -2.31764
O         27.12012        35.52713        -2.41129
O         29.62120        25.67066        -2.52568
O         35.34418        27.50747         1.64207
H         36.12087        28.06211         1.87606
O         41.89671        33.60821        -3.21621
H         41.51580        32.74935        -3.51544
O         51.30545        42.94605         0.06467
H         51.16568        42.17425         0.65493
O         45.75569        46.56771        -3.66100
H         46.27003        47.15129        -4.25855
O         48.59608        51.09735         0.70982
H         48.56784        50.20502         1.11457
O         37.52523        36.05895        -3.18150
H         37.59860        35.14352        -3.53714
O         40.17028        37.54473        -3.25252
H         40.95189        37.12407        -3.66901
O         47.44203        27.22123         2.34184
H         47.86128        28.00497         2.77029
O         31.47156        26.53911         1.55824
H         32.36245        26.25478         1.86128
O         38.72905        29.79928         1.69376
H         39.16981        29.04023         2.14643
O         39.19106        22.10536        -1.92755
H         38.93275        22.92278        -2.40434
O         49.15038        43.19996        -3.75260
H         48.93246        43.95934        -4.34170
O         44.26697        30.66331        -2.36642
H         44.21817        31.54161        -2.80427
O         38.16538        39.74632         1.29274
H         37.40295        40.12169         1.78443
O         56.65684        33.51334        -2.25237
H         55.97669        34.04377        -2.72167
O         33.87174        51.03262        -0.83799
H         33.03506        51.54136        -0.90255
O         36.96720        43.49162         2.07291
H         37.86954        43.13200         2.21621
O         55.47460        27.35384        -0.88014
H         55.52303        26.40552        -1.12130
O         44.12412        52.56400        -2.78072
H         43.21000        52.52089        -3.14744
O         27.75319        24.08353        -2.66643
H         28.45811        24.60671        -3.15223
O         27.91649        44.68762         0.17498
H         28.68970        45.20535        -0.13655
O         39.52370        47.98686         1.97633
H         40.38918        47.53852         2.09317
O         30.21232        28.94061         1.58320
H         30.71814        28.15597         1.91850
O         34.01482        35.46987         0.95769
H         34.78701        35.02628         1.36905
O         49.01152        52.29623        -2.71144
H         48.90443        53.20097        -3.07065
O         45.79962        43.54107        -3.59278
H         45.84396        44.42363        -4.03399
O         54.79642        28.96280         2.32177
H         54.75894        29.90078         2.60370
O         55.33065        31.19706        -1.85802
H         56.02745        31.78783        -2.24214
O         52.43623        45.99538         1.83098
H         52.85786        46.45232         2.59894
O         29.66867        43.01778         2.95568
H         28.86281        42.51619         3.22938
H         21.98767        26.94981        -0.94484
H         21.95870        29.39156        -0.66984
H         21.96905        31.28796        -0.48575
H         21.99261        33.71585        -0.41400
H         22.08224        35.54255         0.19267
H         22.10921        37.97309         0.37317
H         22.05588        39.89977         0.17350
H         22.15627        42.26434         0.80045
H         22.31497        44.26879         1.01585
H         22.46410        46.53108         1.97241
H         25.39301        23.64875        -1.52458
H         23.23219        24.85219        -1.29245
H         25.88104        49.26687         3.79526
H         23.80006        48.19157         3.51998
H         26.90299        22.83675        -0.20448
H         27.43463        50.42273         3.06949
H         28.95196        21.57308         0.18391
H         29.39890        51.71499         2.43945
H         32.73037        19.22177        -0.17733
H         30.62400        20.43578        -0.29264
H         32.99594        53.95758         1.74513
H         30.93782        52.71352         1.95169
H         34.34174        18.35590         0.33674
H         34.65697        54.86929         1.81072
H         36.39440        17.20025         0.89423
H         36.75109        56.07174         1.70297
H         40.08053        15.14364         1.88062
H         37.98392        16.30754         1.36104
H         40.56089        58.11368         1.80112
H         38.43579        56.90866         1.86734
H         42.53065        15.14103         2.08533
H         42.94688        58.20577         1.14941
H         44.68730        16.31021         1.97093
H         44.98155        57.09673         0.39215
H         48.45676        18.38638         1.81890
H         46.34132        17.20703         1.84409
H         48.66368        55.04050        -0.49718
H         46.58337        56.23353        -0.06317
H         50.12062        19.31850         1.77657
H         50.36803        54.09575        -0.87723
H         52.22530        20.52336         1.78738
H         52.22789        52.78991        -0.08615
H         55.95581        22.76461         1.96486
H         53.88904        21.49829         1.85071
H         55.09779        50.46832         2.18300
H         53.55174        51.77240         0.82814
H         57.46069        23.83031         2.51940
H         56.50956        49.33066         3.13443
H         59.50350        25.15662         2.85109
H         60.74106        27.29333         2.64667
H         60.83849        29.64162         1.94584
H         60.87557        31.47404         1.38664
H         60.93776        33.77337         0.57180
H         61.05879        35.18241        -0.87237
H         61.09701        37.53539        -1.72288
H         61.06035        40.51313        -0.79388
H         60.76441        42.47881         0.70318
H         60.44460        43.96703         1.95253
H         60.09541        46.23193         2.85530
H         58.69388        48.21001         3.22303
