         490
 CSIRO Nanostructure Databank - Neutral Graphene Oxide Data Set
C         37.98467        50.36343         2.72843
C         36.87065        51.09093         3.13850
C         38.28522        53.00633         3.54746
C         37.02062        52.41522         3.55507
C         40.38805        48.79787         2.09014
C         40.43729        50.17576         2.26995
C         39.26956        50.94331         2.72227
C         40.80155        52.90822         3.16607
C         39.41315        52.29398         3.11938
C         40.82204        54.41386         3.06423
C         42.67249        48.72523         1.21734
C         41.50135        48.08347         1.61100
C         42.72668        50.16453         1.28346
C         41.63989        50.87565         1.90908
C         42.80000        52.99465         1.59847
C         41.74368        52.26256         2.17266
C         42.90548        54.43045         1.76331
C         41.82173        55.09485         2.46528
C         45.07182        45.83813         0.78260
C         43.91391        46.55273         0.99497
C         45.05374        48.64393         0.50664
C         43.87896        47.96961         0.86372
C         44.95315        50.08288         0.02911
C         43.81107        50.87908         0.71820
C         44.65872        53.14963         0.07158
C         43.73616        52.30125         0.75555
C         44.98718        54.42298         0.48047
C         44.02028        55.13005         1.26481
C         45.16571        57.21605         0.60907
C         44.21425        56.57955         1.33506
C         47.59443        44.33961         0.52296
C         47.55778        45.78582         0.48674
C         46.30537        46.49973         0.54516
C         47.55507        48.60352         0.37055
C         46.29589        47.92562         0.44095
C         47.55531        50.06819         0.49895
C         46.31048        50.77198         0.13573
C         47.60993        52.89260        -0.22292
C         46.45004        52.03944        -0.32267
C         47.50867        54.30345        -0.32805
C         46.34529        55.08350         0.27542
C         47.44744        57.19646        -0.57455
C         46.12773        56.47646        -0.32376
C         47.44216        58.59677        -0.74272
C         50.02858        44.26170         0.25281
C         48.75135        43.62358         0.37207
C         50.06590        45.74334         0.58136
C         48.76753        46.48542         0.36619
C         50.03105        48.64024         0.07341
C         48.77940        47.90955         0.29467
C         50.05775        50.01400        -0.02681
C         48.86708        50.81655         0.26682
C         50.02448        52.94948        -0.48665
C         48.85427        52.23798        -0.14263
C         49.90703        54.32399        -0.78718
C         48.68882        55.02442        -0.61066
C         49.86075        57.20667        -1.03465
C         48.65201        56.48827        -0.75248
C         49.85204        58.62996        -1.09376
C         48.61115        59.30059        -0.97639
C         52.41515        41.42935        -0.24309
C         51.28692        42.10031         0.07669
C         52.46374        44.26353        -0.17057
C         51.20993        43.55395         0.02347
C         52.42806        45.70758        -0.16246
C         51.27634        46.44080         0.02198
C         52.39853        48.54454        -0.60941
C         51.27784        47.88853        -0.15472
C         52.31542        49.97005        -1.10622
C         51.35740        50.76422        -0.22001
C         52.36826        52.82984        -1.22076
C         51.26928        52.20300        -0.70892
C         52.40334        54.33768        -1.10631
C         51.05647        55.01411        -1.47815
C         52.30474        57.21075        -1.31167
C         51.10666        56.51292        -1.22980
C         52.33387        58.65192        -1.26963
C         51.09686        59.35618        -1.24433
C         52.31115        61.47083        -1.35255
C         51.12198        60.77312        -1.31175
C         54.92628        40.01339        -0.99949
C         54.90444        41.39688        -0.82393
C         53.58178        42.13538        -0.88921
C         54.93396        44.23065        -0.46438
C         53.65489        43.57855        -0.44598
C         54.98820        45.70437        -0.34407
C         53.70205        46.44003        -0.29659
C         54.93523        48.55255        -0.70722
C         53.65028        47.79214        -0.95401
C         54.89269        50.05013        -0.93769
C         53.62823        50.68541        -1.23073
C         54.93125        52.84691        -1.45668
C         53.61300        52.10369        -1.71289
C         54.91396        54.31004        -1.75394
C         53.56146        55.03426        -1.84890
C         54.87725        57.19892        -1.15428
C         53.59441        56.45399        -1.29808
C         54.83736        58.67978        -1.14719
C         53.56951        59.38257        -1.27166
C         54.80808        61.55934        -1.28417
C         53.56135        60.80256        -1.30359
C         54.88095        62.94226        -1.25754
C         57.36263        39.98960        -1.00366
C         56.13884        39.32181        -1.08937
C         57.37769        41.39700        -0.83033
C         56.13563        42.09976        -0.74040
C         57.42112        44.26954        -0.31569
C         56.12769        43.53489        -0.59548
C         57.42603        45.71346        -0.77082
C         56.21568        46.42411        -0.77970
C         57.42204        48.55599        -1.05458
C         56.19942        47.82354        -0.92694
C         57.41375        49.97471        -1.17370
C         56.12791        50.68436        -1.53129
C         57.45023        52.86875        -1.65087
C         56.11865        52.18864        -1.36101
C         57.45513        54.34104        -1.32073
C         56.20709        55.07177        -1.64823
C         57.35377        57.19198        -1.18255
C         56.18342        56.53072        -1.41415
C         57.28343        58.61715        -0.76661
C         56.02036        59.35392        -1.00839
C         57.35873        61.56241        -0.98408
C         56.06996        60.80656        -1.24015
C         57.29836        63.02017        -0.78230
C         56.09425        63.65359        -1.02009
C         59.77949        37.13900        -0.52551
C         58.64087        37.79088        -0.87348
C         59.87659        39.96839        -0.76161
C         58.65442        39.24092        -1.26931
C         59.88318        41.36866        -0.79954
C         58.63799        42.12250        -0.82867
C         59.87162        44.26615        -0.82753
C         58.66385        43.52173        -0.72601
C         59.89241        45.67490        -0.86456
C         58.64955        46.41242        -0.89421
C         59.90251        48.54851        -1.05503
C         58.65975        47.83077        -1.01484
C         59.86169        49.95469        -1.05532
C         58.63475        50.69004        -1.12696
C         59.85506        52.84273        -0.89175
C         58.66298        52.12828        -1.15228
C         59.85034        54.30109        -0.71143
C         58.59474        55.01623        -0.96870
C         59.76615        57.16112        -0.65609
C         58.61296        56.48144        -0.95679
C         59.84070        58.64644        -0.92595
C         58.54878        59.34763        -0.47419
C         59.81512        61.55790        -0.75198
C         58.52317        60.87043        -0.29021
C         59.76824        63.02300        -0.37264
C         58.53757        63.70714        -0.39662
C         59.70618        65.78415         0.14361
C         58.53441        65.09853        -0.10053
C         62.32481        35.62804        -0.00101
C         62.20846        37.09289         0.15945
C         61.02486        37.82664        -0.31983
C         62.29928        39.96177        -0.23989
C         61.06488        39.23656        -0.43210
C         62.29595        41.38252        -0.39959
C         61.12401        42.07494        -0.66388
C         62.36475        44.30746        -0.66340
C         61.15348        43.52157        -1.08760
C         62.37682        45.66631        -0.78869
C         61.13536        46.40742        -0.94387
C         62.43722        48.51715        -1.01152
C         61.15518        47.80794        -1.02864
C         62.40861        49.99229        -1.22334
C         61.10875        50.72686        -1.18413
C         62.29345        52.81969        -0.43364
C         61.08587        52.15834        -0.81986
C         62.22387        54.22551         0.13075
C         60.97289        54.97510        -0.29833
C         62.20648        57.18916         0.12091
C         60.86247        56.44454         0.09585
C         62.21574        58.66882        -0.05869
C         61.07962        59.33477        -0.38004
C         62.27444        61.57825         0.03274
C         61.00666        60.80833        -0.18359
C         62.24897        63.03698        -0.14287
C         60.98862        63.72017        -0.13186
C         62.20997        65.81837         0.29906
C         60.96278        65.12672         0.10747
C         62.25505        67.18220         0.75148
C         64.75560        35.65447         0.45022
C         63.49397        34.97730         0.19983
C         64.80489        37.11432         0.27608
C         63.52693        37.86567         0.28571
C         64.78179        39.97986        -0.15973
C         63.53450        39.29173        -0.06397
C         64.83455        41.37580        -0.12863
C         63.55185        42.10834        -0.09279
C         64.88681        44.28583        -0.24189
C         63.58375        43.59406        -0.23685
C         64.89144        45.69801        -0.30764
C         63.70175        46.36359        -0.98914
C         64.99830        48.53404        -0.86318
C         63.63186        47.86184        -0.84084
C         64.93058        50.05184        -0.74008
C         63.64893        50.78873        -0.96212
C         64.70881        52.85013         0.16924
C         63.51461        52.17733        -0.46295
C         64.72551        54.33798        -0.07556
C         63.52413        54.98833        -0.10813
C         64.77247        57.19382        -0.23457
C         63.51216        56.45808         0.02146
C         64.67614        58.68303        -0.51020
C         63.54018        59.37342         0.26570
C         64.71996        61.56007        -0.25038
C         63.54390        60.86122        -0.05817
C         64.73460        63.01984        -0.27053
C         63.46489        63.73750        -0.15587
C         64.67822        65.90985         0.08035
C         63.42194        65.14524         0.05405
C         64.70061        67.15973         0.85630
C         63.43970        67.78780         1.09052
C         67.17114        32.85479         0.88641
C         65.99670        33.52687         0.92753
C         67.18418        35.75171         0.92379
C         65.92245        34.95544         0.69365
C         67.27292        36.99021         0.03993
C         65.98558        37.76976         0.08853
C         67.29513        39.94205         0.10126
C         66.05579        39.20453        -0.36912
C         67.27617        41.37255         0.17893
C         66.06840        42.09505         0.02236
C         67.23845        44.28679         0.36187
C         66.06256        43.55877         0.05035
C         67.24000        45.70873         0.40445
C         66.04525        46.40988         0.05023
C         67.26703        48.60211         0.22856
C         65.93588        47.91288         0.21077
C         67.28165        50.09107         0.36579
C         66.05475        50.79150        -0.13775
C         67.27249        52.90653         0.00499
C         66.02282        52.15273        -0.04797
C         67.20069        54.35621        -0.13527
C         65.99788        55.04749        -0.14994
C         67.22580        57.25350        -0.35605
C         65.96434        56.51115        -0.28705
C         67.22538        58.69227        -0.41265
C         65.98887        59.43461        -0.38757
C         67.20390        61.59200        -0.47770
C         65.98237        60.83397        -0.35399
C         67.19965        62.98492        -0.47565
C         65.95171        63.70273        -0.33027
C         67.21776        65.80391         0.34354
C         65.98455        65.18516        -0.18394
C         67.18206        66.97683         1.10653
C         65.92121        67.66407         1.34477
C         67.12439        69.43252         2.50708
C         65.94397        68.87502         2.10260
C         69.76721        31.40110         0.64754
C         69.71540        32.79401         0.77714
C         68.44128        33.52484         0.40557
C         69.64769        35.67026         0.95476
C         68.46393        34.97020         0.79179
C         69.63262        37.12856         0.89513
C         68.49262        37.80312         0.44383
C         69.80573        39.93203         0.35367
C         68.47144        39.22529         0.33809
C         69.71391        41.42497         0.55941
C         68.51675        42.07905         0.48308
C         69.70096        44.30839         1.05866
C         68.42728        43.53372         0.79182
C         69.67064        45.77931         0.90831
C         68.47135        46.43066         0.68351
C         69.72720        48.66354         0.72474
C         68.41176        47.92443         0.91387
C         69.76711        50.04316         0.41363
C         68.54712        50.71411        -0.20480
C         69.74974        52.93920        -0.21739
C         68.47622        52.22595        -0.07132
C         69.73601        54.40515        -0.16483
C         68.45369        55.07645        -0.58368
C         69.67802        57.26436        -0.29352
C         68.43822        56.56252        -0.33128
C         69.68038        58.68771        -0.43309
C         68.44645        59.38253        -0.51326
C         69.72824        61.56624        -0.71675
C         68.42756        60.83186        -0.92470
C         69.73316        62.97586        -0.83586
C         68.46404        63.76087        -0.69142
C         69.71889        65.91366         0.28949
C         68.47899        65.24524        -0.18050
C         69.65896        66.83497         1.37337
C         68.40844        67.53632         1.65900
C         69.55656        69.63209         2.62699
C         68.38615        68.80544         2.26103
C         69.48111        71.03359         2.48471
C         72.06352        31.37960         1.39622
C         70.92883        30.69104         0.95658
C         72.03919        32.76587         1.50328
C         70.87585        33.50601         1.18705
C         71.97244        35.71756         1.69237
C         70.86913        34.96272         1.24984
C         71.92804        37.10469         1.78507
C         70.80745        37.85568         1.33065
C         71.80071        40.06617         1.92186
C         70.82023        39.26507         1.25737
C         71.88722        41.41489         1.75456
C         71.05539        42.12102         0.70700
C         72.13680        44.35301         0.96443
C         70.99088        43.61241         0.94244
C         72.10470        45.77756         1.08909
C         70.92641        46.49775         1.04037
C         72.13225        48.69554         1.07038
C         70.93003        47.96577         0.97964
C         72.15104        50.07030         0.87586
C         70.98399        50.75339         0.49375
C         72.15282        53.04968         0.55840
C         71.04472        52.19582         0.11011
C         72.10107        54.40085         0.44179
C         70.90797        55.10522         0.01059
C         72.11200        57.27609        -0.20069
C         70.91587        56.55996        -0.15139
C         72.11655        58.66173        -0.40265
C         70.92877        59.38461        -0.52750
C         72.15611        61.50350        -0.97614
C         70.94053        60.83340        -0.73336
C         72.15869        62.86114        -1.25716
C         70.96166        63.58084        -1.17895
C         72.17488        66.09266         0.29476
C         70.97701        65.65850        -0.28048
C         72.11988        66.75877         1.52159
C         70.87587        67.12389         2.04029
C         71.78152        69.93158         3.63418
C         70.74098        69.11220         3.18248
C         71.66439        71.31572         3.50055
C         70.52265        71.86071         2.90430
O         70.87114        67.72338         3.32021
O         57.04287        61.11856        -2.32865
O         62.91965        56.83346         1.37206
O         68.35659        64.89087        -1.59675
O         55.68486        54.63995        -2.97926
O         54.98628        49.46210         0.42081
O         70.63246        52.40513        -1.28934
O         45.36469        52.60859        -1.00699
O         61.78397        50.40485        -2.48493
O         62.70027        37.57266         1.46148
O         54.23198        56.55997         0.01660
O         61.39056        61.16822         1.17683
O         68.84823        43.82914         2.17126
O         48.31766        50.59898         1.63153
O         54.49888        46.29893         0.93000
O         65.33442        65.96524        -1.24701
O         64.62672        50.65050        -2.06762
O         57.83600        58.71985         0.62775
O         71.03859        64.94419        -1.49039
O         63.38141        42.96161         1.10635
O         65.31371        48.15791         1.53196
H         64.61097        47.48425         1.66276
O         62.13730        54.08462         1.59483
H         62.23517        54.99630         1.96195
O         68.42074        54.94009        -2.05640
H         69.30612        55.19047        -2.39683
O         41.32721        52.58698         4.50205
H         42.24660        52.92516         4.54339
O         64.28015        58.79067        -1.91761
H         65.03374        58.48848        -2.46811
O         57.49959        44.33474         1.15674
H         56.74707        44.88443         1.46774
O         68.61148        50.44299        -1.62591
H         69.36450        50.97337        -1.97964
O         67.11860        36.24398         2.29583
H         66.99038        35.47431         2.88841
O         53.26388        55.10762        -3.26069
H         53.42054        54.20617        -3.63212
O         67.46803        36.54392        -1.33284
H         67.24157        37.30759        -1.91400
O         63.96349        46.14257        -2.42383
H         64.69705        46.76894        -2.66172
O         52.63625        54.58599         0.30095
H         51.96664        54.09410         0.82092
O         71.76895        41.96277        -0.56102
H         71.61890        41.03208        -0.86466
O         51.70623        49.92264        -2.43160
H         52.37863        49.56622        -3.05169
O         59.88469        61.47666        -2.20175
H         60.48506        62.17618        -2.53420
O         55.96163        50.51264        -2.98915
H         56.67780        51.06528        -3.39946
O         59.89690        58.76222        -2.37432
H         59.88318        59.72445        -2.60989
O         53.26409        42.19360        -2.33077
H         52.37994        42.61011        -2.41519
O         68.13234        48.01175         2.36993
H         67.18469        47.77270         2.49060
O         65.61698        48.24183        -2.14458
H         65.38470        48.99581        -2.73890
O         45.47364        56.30769        -1.60501
H         45.40855        57.18549        -2.03454
O         46.86239        55.27707         1.63143
H         46.20667        55.80115         2.14036
O         57.55690        52.76343        -3.12752
H         56.92639        53.44238        -3.48682
O         67.33675        50.40539         1.79515
H         66.56222        49.97656         2.22032
O         50.25416        45.78109         2.04834
H         51.13777        45.39909         2.23991
O         53.54182        52.12442        -3.19251
H         54.29804        51.56036        -3.49585
O         63.80461        59.28629         1.67872
H         63.05183        59.71223         2.14316
O         60.37209        56.45681         1.47903
H         61.12900        56.68358         2.06523
O         68.29324        60.77748        -2.40163
H         68.25551        61.70335        -2.72674
O         50.73434        54.83974        -2.87989
H         51.50491        55.17680        -3.40196
O         58.39777        61.15267         1.11421
H         58.03916        60.34029         1.54493
O         61.28513        43.43788        -2.56266
H         61.40234        44.35339        -2.89880
O         51.96500        50.84624         1.09739
H         51.25450        50.94577         1.76556
O         53.61770        47.56891        -2.40386
H         52.79674        47.07451        -2.61306
O         66.22873        39.09817        -1.84754
H         66.17282        40.00814        -2.21213
O         64.51003        52.69941         1.62451
H         63.65740        53.16043         1.84992
O         68.37268        33.53871        -1.06931
H         67.97651        34.39935        -1.34221
O         44.59692        49.99134        -1.38086
H         44.61620        50.91141        -1.73348
O         70.33885        39.71952        -1.02533
H         69.64752        40.02287        -1.65249
O         58.78426        39.24468        -2.74412
H         59.65357        38.84569        -2.96064
H         37.84728        49.32456         2.39862
H         35.87722        50.62127         3.13552
H         38.38062        54.04554         3.88988
H         36.14772        52.99280         3.88940
H         39.48414        48.23250         2.35396
H         40.05290        54.98151         3.60721
H         41.41486        46.99106         1.54286
H         41.81725        56.19444         2.49873
H         45.03434        44.74370         0.86003
H         42.99847        46.00064         1.24480
H         45.21683        58.31463         0.66359
H         43.52925        57.17740         1.95553
H         46.65065        43.78370         0.60077
H         46.49669        59.15261        -0.66277
H         48.68830        42.52790         0.30421
H         48.55690        60.39378        -1.05931
H         52.43809        40.33472        -0.14006
H         50.42212        41.54233         0.46432
H         52.27885        62.56723        -1.40331
H         50.18286        61.34147        -1.32689
H         53.98781        39.45277        -1.10757
H         53.96386        63.54198        -1.33988
H         56.10730        38.23893        -1.26757
H         56.02437        64.74846        -0.94945
H         59.73195        36.05997        -0.31938
H         57.71367        37.21220        -0.98518
H         59.65711        66.86362         0.33961
H         57.58321        65.64756        -0.08094
H         61.42861        35.04904        -0.26584
H         61.31604        67.72219         0.93024
H         63.51113        33.88145         0.11220
H         63.40224        68.78993         1.53782
H         67.17985        31.77332         1.08746
H         65.07059        32.97947         1.16254
H         67.10467        70.37811         3.06579
H         65.00506        69.38744         2.34641
H         68.88421        30.85482         0.28735
H         68.59628        71.48665         2.01609
H         72.98100        30.82813         1.64448
H         70.95030        29.59761         0.85185
H         72.95008        33.28577         1.82939
H         72.90004        35.21062         1.99162
H         72.82436        37.63428         2.13635
H         72.48378        39.57373         2.63085
H         72.64581        41.99129         2.30406
H         73.11238        43.85614         0.86815
H         73.07058        46.29529         1.15589
H         73.07768        48.18855         1.30339
H         73.10621        50.60644         0.95904
H         73.03012        52.58572         1.03103
H         72.96494        54.99126         0.77749
H         73.07514        56.75726        -0.10862
H         73.08892        59.16819        -0.45070
H         73.10422        60.95338        -1.01538
H         73.08594        63.38191        -1.52743
H         73.13368        65.85593        -0.18301
H         73.03688        67.02649         2.06146
H         72.67323        69.48057         4.08833
H         72.47202        71.97323         3.85022
H         70.43830        72.94811         2.77451
