         661
 CSIRO Nanostructure Databank - Neutral Graphene Oxide Data Set
C          6.31781        31.66260         0.20301
C          6.24004        32.99200         0.44858
C          8.38318        27.39927        -0.84552
C          8.34750        28.83614        -0.79587
C          7.15810        29.51302        -0.87847
C          8.35390        31.70841        -1.22038
C          7.01357        31.01122        -1.00029
C          8.35345        33.02040        -1.59007
C          6.84930        34.03720        -0.37933
C          8.19441        36.04995        -1.01584
C          7.38525        35.22065        -0.00120
C          8.40220        37.44136        -0.48373
C         10.82189        23.09198        -1.03822
C         10.79386        24.50688        -1.12360
C          9.58353        25.23987        -0.99405
C         10.86735        27.35056        -0.76755
C          9.56301        26.64888        -0.85731
C         10.91666        28.85290        -0.69586
C          9.61177        29.62839        -0.50109
C         10.78541        31.67920        -1.35402
C          9.61436        31.00321        -1.12725
C         10.81912        33.17104        -1.15451
C          9.56110        33.87143        -1.64427
C         10.84071        35.98869        -0.99613
C          9.53530        35.35254        -1.35809
C         10.86943        37.35007        -0.66656
C          9.61717        38.07513        -0.39941
C         10.84927        40.19451        -0.03544
C          9.66857        39.45116         0.00031
C         10.89823        41.52581         0.41881
C         13.35167        18.87002        -0.49591
C         13.30242        20.27303        -0.58984
C         12.06150        20.96507        -0.74404
C         13.31230        23.01276        -1.27547
C         12.02038        22.33942        -0.99561
C         13.29009        24.51464        -1.50139
C         12.02997        25.24044        -1.30248
C         13.29148        27.35605        -1.42195
C         12.07317        26.62363        -1.20114
C         13.25482        28.80018        -1.55445
C         12.11773        29.51687        -1.26609
C         13.28120        31.72212        -1.93403
C         12.03636        30.95951        -1.60909
C         13.33284        33.25211        -2.00923
C         12.08128        33.91157        -1.48810
C         13.34556        35.99038        -1.11397
C         12.08367        35.28835        -1.22337
C         13.34634        37.38237        -0.84303
C         12.10409        38.04616        -0.63115
C         13.37366        40.25568        -0.52141
C         12.07000        39.51614        -0.54776
C         13.34952        41.68616        -0.06749
C         12.11457        42.26348         0.54069
C         13.48086        44.05548         1.69983
C         12.17941        43.46320         1.21723
C         13.49878        45.52982         1.95661
C         15.77488        14.57124        -0.22010
C         15.82405        16.07924        -0.20472
C         14.62922        16.76037        -0.32781
C         15.79419        18.91541        -0.14955
C         14.57464        18.18415        -0.34376
C         15.71760        20.33858        -0.10990
C         14.53065        21.01798        -0.43978
C         15.70586        23.21438        -0.57465
C         14.55649        22.43079        -0.74461
C         15.72985        24.60600        -0.92218
C         14.54379        25.25592        -1.32267
C         15.78371        27.33105        -1.91891
C         14.50641        26.66252        -1.49821
C         15.77536        28.82426        -1.76415
C         14.48356        29.50536        -2.12591
C         15.82397        31.70394        -1.77584
C         14.53267        30.94921        -1.56363
C         15.81879        33.10862        -1.49795
C         14.59430        33.85809        -1.43086
C         15.81687        35.94011        -0.89770
C         14.59039        35.25304        -1.15266
C         15.83955        37.34465        -0.72320
C         14.60731        38.09406        -0.70396
C         15.87058        40.15752        -0.20289
C         14.63886        39.48351        -0.45956
C         15.90535        41.55859         0.10019
C         14.65412        42.32733         0.21915
C         15.84580        44.35767         0.87627
C         14.68640        43.60685         0.93947
C         15.82277        45.78401         1.14282
C         14.60255        46.34457         1.76039
C         15.31620        48.73583         1.95322
C         14.55554        47.65899         2.39161
C         15.72426        49.94427         2.55357
C         18.17369        10.54982         1.37113
C         18.23141        11.84824         0.89707
C         17.03195        12.60436         0.62587
C         18.30289        14.64264         0.12690
C         17.05681        13.91592         0.22276
C         18.33371        16.05338        -0.07936
C         17.06671        16.79202        -0.10591
C         18.29981        18.92394         0.21206
C         17.02939        18.19702        -0.03019
C         18.21710        20.42600         0.38424
C         16.89192        21.13049         0.31820
C         18.11411        23.40505         0.35353
C         16.75692        22.66159         0.37523
C         18.14237        24.83883        -0.14496
C         16.93273        25.42095        -0.77392
C         18.23713        27.46158        -1.36260
C         16.99704        26.69959        -1.28813
C         18.26438        28.77420        -1.80606
C         17.02050        29.52045        -2.26461
C         18.25177        31.72472        -1.87733
C         17.03153        31.01090        -1.92604
C         18.27705        33.09486        -1.50317
C         17.06211        33.76872        -1.29345
C         18.38458        35.87023        -0.73470
C         17.05388        35.10811        -0.60278
C         18.38912        37.35573        -0.62535
C         17.07947        38.05598        -0.55926
C         18.39697        40.10000        -0.08890
C         17.09365        39.42060        -0.29871
C         18.38658        41.58022         0.17286
C         17.08965        42.27847         0.24917
C         18.28352        44.41420         0.39473
C         17.07540        43.69333         0.46973
C         18.26143        45.83935         0.56390
C         16.99892        46.49968         0.83920
C         18.16207        48.69257         1.11280
C         17.01968        47.93278         0.85627
C         18.13280        50.01651         1.64893
C         16.91916        50.64634         2.18269
C         18.18106        52.75694         2.42881
C         16.98277        52.01698         2.50775
C         18.22140        54.15979         2.58113
C         20.53285         6.58014         3.38592
C         20.58504         7.86481         2.58373
C         19.41236         8.47714         2.24673
C         20.72522        10.42495         1.23995
C         19.37588         9.71873         1.45835
C         20.71947        11.86952         0.97218
C         19.50260        12.52565         0.70310
C         20.75528        14.57902         0.21518
C         19.50873        13.91100         0.35344
C         20.77418        15.94318        -0.20992
C         19.59117        16.72276        -0.25402
C         20.81018        19.10660        -0.18956
C         19.61474        18.22209        -0.06909
C         20.71782        20.60168        -0.17043
C         19.43119        21.25220         0.27232
C         20.65258        23.34697         0.24177
C         19.38816        22.62381         0.30944
C         20.65354        24.81373         0.00645
C         19.42787        25.49770        -0.47884
C         20.77215        27.36002        -1.52804
C         19.47350        26.75261        -1.02527
C         20.78909        28.86390        -1.61484
C         19.53636        29.49067        -2.04031
C         20.78676        31.74550        -1.86784
C         19.52392        31.02522        -2.12242
C         20.78155        33.13010        -1.70980
C         19.54968        33.83743        -1.50564
C         20.71725        36.03737        -1.88638
C         19.57307        35.21120        -1.31045
C         20.78912        37.49404        -1.45325
C         19.61121        38.13698        -0.98252
C         20.81253        40.27119        -0.83107
C         19.62703        39.49588        -0.66524
C         20.79204        41.68940        -0.57333
C         19.58184        42.37142        -0.16138
C         20.65401        44.59525        -0.34177
C         19.49786        43.74991        -0.01590
C         20.68212        45.98210         0.16929
C         19.44627        46.60173         0.47652
C         20.67753        48.72810         1.04517
C         19.41778        48.11605         0.51754
C         20.65676        49.96370         1.64815
C         19.38827        50.67365         1.86635
C         20.64312        52.72132         2.50233
C         19.41629        52.03801         2.24860
C         20.68530        54.10799         2.72832
C         19.44354        54.85875         2.64416
C         20.66207        57.00533         2.69747
C         19.46260        56.27160         2.59922
C         20.70491        58.39191         2.54803
C         23.05568         3.78643         3.99421
C         21.84305         4.48273         3.82483
C         23.06832         6.48364         3.19294
C         21.83924         5.82079         3.43569
C         23.08883         7.84001         2.70951
C         21.87589         8.49457         2.33647
C         23.16457        10.49665         1.73799
C         21.93308         9.79800         1.80226
C         23.20150        11.90813         1.34830
C         21.95628        12.57755         0.95354
C         23.31931        14.57406         0.33629
C         21.97212        13.91746         0.54894
C         23.25280        16.07100         0.17737
C         22.10181        16.48793        -0.42469
C         23.30421        19.21230         0.11360
C         22.08065        18.68217        -0.48450
C         23.15074        20.59009         0.58278
C         21.93978        21.24459         0.42025
C         23.16356        23.34127         0.26601
C         21.84790        22.68523         0.45551
C         23.22239        24.72244        -0.21837
C         21.95494        25.48465        -0.26356
C         23.20705        27.46580        -0.90882
C         22.01194        26.80487        -0.90130
C         23.19132        28.97456        -0.91730
C         21.96566        29.58061        -1.55261
C         23.25979        31.66846        -1.91643
C         22.00419        30.99624        -1.78517
C         23.14610        33.10550        -2.40897
C         22.11338        33.84185        -1.53338
C         23.20477        36.04349        -2.05179
C         22.06546        35.34064        -1.80214
C         23.18798        37.54345        -2.18112
C         21.95941        38.24052        -1.66891
C         23.19809        40.42386        -1.49099
C         22.00033        39.63973        -1.33796
C         23.17363        41.77972        -1.14511
C         21.97347        42.42841        -0.76558
C         23.19796        44.65736        -0.50461
C         21.94326        43.90938        -0.72939
C         23.12902        46.00060        -0.05161
C         21.91435        46.65730         0.25780
C         23.19124        48.62245         1.23031
C         21.95737        48.15844         0.49295
C         23.11928        49.86221         1.99468
C         21.91663        50.54948         2.11636
C         23.14003        52.66542         3.00607
C         21.85327        51.90957         2.70651
C         23.15586        54.14227         2.97331
C         21.93184        54.80578         2.95901
C         23.19653        57.05632         3.16557
C         21.89262        56.28240         3.09502
C         23.17898        58.42855         2.62808
C         21.94187        59.10542         2.45468
C         23.15255        61.10654         1.74426
C         21.95225        60.46731         2.05016
C         24.26654         4.43006         3.80706
C         25.53581         6.47763         3.23213
C         24.30120         5.79228         3.40417
C         25.57998         7.81392         2.82291
C         24.33459         8.49701         2.51858
C         25.65909        10.52629         1.74501
C         24.35806         9.83207         2.06321
C         25.59244        12.00262         2.12685
C         24.36383        12.62173         1.50541
C         25.65891        14.84737         1.32954
C         24.37944        14.07778         1.27889
C         25.74101        16.21349         0.68142
C         24.50511        16.91485         0.16035
C         25.53284        18.99305         1.26442
C         24.44107        18.43153         0.32430
C         25.58574        20.53264         1.36602
C         24.32175        21.31256         1.15705
C         25.64546        23.48310         0.76027
C         24.30580        22.85220         1.10650
C         25.70078        24.77813         0.25316
C         24.48079        25.48139        -0.14439
C         25.72282        27.47827        -0.92324
C         24.44630        26.79903        -0.52714
C         25.66660        28.98273        -0.94536
C         24.49559        29.63592        -1.27895
C         25.79626        31.59108        -2.15050
C         24.46822        31.01442        -1.69904
C         25.78796        33.09778        -2.38967
C         24.47857        33.82774        -2.49320
C         25.78965        36.06072        -2.40724
C         24.46245        35.33662        -2.43800
C         25.86718        37.59670        -2.32245
C         24.48070        38.32790        -2.35346
C         25.66466        40.72917        -2.15752
C         24.36534        39.93039        -2.35655
C         25.66244        41.90050        -1.40181
C         24.36542        42.66494        -1.46407
C         25.65807        44.58816        -0.44476
C         24.40955        43.97826        -0.71786
C         25.69573        46.03363        -0.15333
C         24.37560        46.77941         0.05662
C         25.66514        48.44927         1.45100
C         24.36670        47.97522         0.93851
C         25.69881        49.80283         2.11776
C         24.39570        50.47138         2.46148
C         25.62671        52.72885         2.47138
C         24.42566        51.91994         2.84625
C         25.63287        54.14957         2.88574
C         24.44611        54.82498         3.03418
C         25.68698        56.95735         2.58198
C         24.53071        56.32094         3.33929
C         25.59655        58.30219         2.15386
C         24.39060        59.05169         2.20782
C         24.35717        60.40623         1.78184
C         26.81947         8.51710         2.72045
C         28.08608        10.57951         2.22743
C         26.89071         9.85126         2.30085
C         28.10659        11.97015         1.87814
C         26.88722        12.71178         1.78147
C         28.16409        14.79533         1.52136
C         26.92869        14.09432         1.55685
C         28.11008        16.25228         1.47022
C         26.94783        16.97542         1.08751
C         28.09621        19.12956         1.39299
C         26.92106        18.38356         1.13936
C         28.07081        20.58150         1.46226
C         26.88598        21.27204         1.31835
C         28.12592        23.52776         1.18575
C         26.80809        22.79496         1.47907
C         28.17455        24.93175         0.66611
C         26.93005        25.56119         0.15927
C         28.17296        27.62588        -0.39199
C         26.94471        26.87780        -0.27679
C         28.19563        28.99678        -0.65164
C         26.91971        29.73545        -0.77244
C         28.25306        31.80756        -1.50695
C         26.94953        31.14822        -1.27052
C         28.25800        33.16747        -1.78786
C         27.01535        33.88408        -2.08368
C         28.21631        35.90925        -1.46081
C         27.00899        35.25719        -2.09800
C         28.16967        37.40463        -1.39814
C         26.95516        38.06484        -1.36222
C         28.12165        40.18567        -0.63058
C         26.90607        39.32305        -0.59591
C         28.07566        41.59672        -0.53541
C         26.74767        42.34174        -0.41556
C         28.09882        44.50330        -0.21010
C         26.86145        43.85285        -0.43038
C         28.13766        45.87128         0.23160
C         26.93777        46.59772         0.38418
C         28.13157        48.54865         1.28857
C         26.94043        47.89485         0.96594
C         28.13257        49.93143         1.67790
C         26.94298        50.57317         1.99689
C         28.17440        52.78749         2.15108
C         26.89035        52.04685         2.06141
C         28.17142        54.10182         2.52462
C         26.97052        54.85749         3.04759
C         26.85631        56.23729         2.45030
C         29.32408        12.64162         1.63671
C         30.68831        14.61865         1.18367
C         29.39911        14.04362         1.48699
C         31.03966        15.92629         1.59022
C         29.19735        17.02097         1.91064
C         30.61752        19.01417         1.64150
C         29.33809        18.41733         1.63471
C         30.68126        20.47905         1.62198
C         29.38323        21.28432         1.62307
C         30.60766        23.22764         0.47146
C         29.41044        22.74346         1.24899
C         30.57407        24.57605        -0.28224
C         29.52789        25.55203         0.30109
C         30.69626        27.51286        -0.52405
C         29.38864        26.77293        -0.66708
C         30.68493        28.99793        -0.67537
C         29.41679        29.71272        -0.89506
C         30.72858        31.75154        -1.46677
C         29.46379        31.06769        -1.28325
C         30.74020        33.12395        -1.75043
C         29.52144        33.87511        -1.82651
C         30.77197        36.04483        -1.88448
C         29.54013        35.27615        -1.83781
C         30.60553        37.50887        -1.69099
C         29.40828        38.11040        -1.19473
C         30.54063        40.31114        -1.01985
C         29.35367        39.52767        -0.94055
C         30.51554        41.70160        -0.81445
C         29.29488        42.34466        -0.56404
C         30.54488        44.45323        -0.11457
C         29.32816        43.78510        -0.30534
C         30.57828        45.82423         0.27301
C         29.38002        46.48952         0.53785
C         30.63886        48.63456         0.95659
C         29.42803        47.79305         1.28458
C         30.58748        50.00593         1.19596
C         29.38572        50.69299         1.57994
C         29.37799        52.06166         1.82303
C         31.93359        16.86760         1.13176
C         33.12186        19.00605         1.11175
C         31.96557        18.25733         1.74528
C         33.18344        20.38217         0.91246
C         31.99100        21.17755         1.33985
C         33.20965        23.26117         0.53644
C         31.89911        22.51326         0.65381
C         33.11584        24.65190        -0.05425
C         31.92737        25.29278        -0.31278
C         33.20739        27.45911        -0.52051
C         31.95025        26.71226        -0.87052
C         33.18545        28.96533        -0.36011
C         31.96062        29.68548        -0.90077
C         33.19800        31.83575        -0.93691
C         31.96790        31.01429        -1.22273
C         33.28440        33.12306        -1.73565
C         31.99680        33.87253        -2.00230
C         33.43236        35.93108        -2.25359
C         32.00023        35.36528        -2.00910
C         33.58567        37.40681        -2.08036
C         31.64090        38.41968        -1.98971
C         33.04100        40.36397        -1.31802
C         31.75266        39.70102        -1.45527
C         33.05127        41.71407        -1.05998
C         31.76703        42.51705        -1.09120
C         33.08122        44.51078        -0.29681
C         31.83685        43.67163        -0.09582
C         33.04149        45.88711        -0.02356
C         31.84186        46.56142         0.32263
C         31.82016        47.94841         0.57413
C         34.28397        21.01368         0.29803
C         35.57905        23.15108        -0.12467
C         34.25617        22.43035        -0.21257
C         35.62044        24.55864        -0.13506
C         34.38556        25.31090        -0.21292
C         35.68555        27.39063        -0.38447
C         34.41411        26.73653        -0.37769
C         35.73020        28.81916        -0.72044
C         34.46151        29.58945        -0.85867
C         35.69103        31.71347        -0.86872
C         34.50311        31.06861        -0.90884
C         35.82830        33.12268        -1.36546
C         34.53361        33.87232        -1.48150
C         35.74687        35.96995        -1.14487
C         34.54684        35.22656        -1.51730
C         35.60533        37.39493        -0.67647
C         34.42573        38.10752        -1.29159
C         35.57301        40.31195        -0.98264
C         34.25873        39.55818        -0.85287
C         35.52222        41.72522        -0.94731
C         34.30157        42.43017        -0.85651
C         34.27024        43.83045        -0.61083
C         36.86234        25.26722        -0.17271
C         38.16786        27.38767        -0.43674
C         36.92159        26.67960        -0.30640
C         38.26718        28.80869        -0.46396
C         36.98188        29.55355        -0.37876
C         38.21942        31.78091        -0.54438
C         36.94051        31.04402        -0.42450
C         38.20833        33.12344        -0.72456
C         36.90129        33.85394        -0.58217
C         38.18302        36.06378        -0.72516
C         36.93320        35.32845        -0.89370
C         38.10065        37.51557        -0.74109
C         36.89011        38.19044        -0.82003
C         36.78675        39.61340        -0.92816
C         39.44712        29.54536        -0.53261
C         40.70690        31.81479        -0.56411
C         39.47658        31.02418        -0.17884
C         40.68609        33.11951        -0.88361
C         39.41821        33.89649        -1.16529
C         39.37274        35.35881        -0.73707
O         22.34283        52.08525         4.08067
O         31.60449        20.99283         2.71013
O         30.19021        16.40399         2.63852
O         18.59198        40.61147         1.27652
O         19.58772        30.19922        -3.32691
O         25.10190        35.79427        -3.67305
O          9.62441        34.82368        -2.73939
O         30.74421        28.30787         0.67844
O         18.08407        24.51551         1.29357
O         25.88359        39.57650         0.07254
O         22.38639        56.83702         4.37421
O         24.71344        14.85534         2.47339
O         25.95084        52.59219         1.02996
O         21.33008        25.56750         1.08141
O         20.10510         9.62603         0.18020
O         12.50304        31.19160        -3.05131
O         18.69591        36.52430         0.57190
O         32.64759        38.06939        -2.88893
O         12.63528        40.10617        -1.78040
O         36.80524        30.32433         0.87046
O         11.16659        28.04741         0.51219
O         25.10912        46.90797        -1.19592
O         24.54295        50.90124         3.87146
O         28.16328        24.68132         2.11793
O         25.19926        33.38132        -3.70034
O         24.12883        40.41491        -3.64650
O         15.81755        48.57721         0.63697
O         23.38514        23.57499        -1.16697
O         13.35432        23.56724        -2.63110
O         21.07048        44.49370        -1.75209
O         25.77693        48.57474         2.91897
O         35.10342        29.03613        -2.05449
O         23.08944        29.31100         0.46371
O         17.43840        20.68672         1.61199
O         24.72776        20.91881         2.50993
O         26.70564        30.90052         0.13440
O         13.94646        42.54957        -1.09704
O         31.09228        22.24752        -0.53924
O         32.78214        33.16533        -3.08667
O         29.53876        22.32462         2.64207
O         23.68854        37.91591        -3.50778
O         22.20195        17.56420        -1.29389
O         25.50918        16.34673        -0.76604
O          7.10460        33.66113        -1.73625
O         19.08404        18.39342         1.33203
O         16.89947        34.75820         0.81172
H         17.37619        35.45802         1.32181
O         23.95622        23.32455         2.42727
H         24.65875        22.98871         3.03883
O         15.86053        27.07004        -3.38245
H         15.11029        27.57944        -3.77783
O         20.76797        20.93439        -1.62773
H         21.15120        21.83518        -1.71793
O         35.36531        37.25074         0.77111
H         36.07794        36.68356         1.13721
O         23.79296        14.07331        -0.96384
H         23.27186        14.50647        -1.67249
O         22.54920        33.68167        -0.16096
H         21.82564        33.95717         0.43979
O         26.44128        37.93535        -3.63970
H         25.77841        37.61354        -4.29912
O         29.17698        26.40637        -2.03659
H         30.04752        26.19115        -2.45076
O         10.67898        33.32418         0.31999
H         11.25746        32.66136         0.75581
O         22.59210        33.09174        -3.73986
H         23.33930        33.00891        -4.37328
O         36.34361        33.03063        -2.73435
H         35.59046        32.84492        -3.33683
O         33.70625        23.39525         1.88904
H         33.10571        23.98207         2.39414
O         28.06540        35.58037        -0.01664
H         28.87162        35.89103         0.44900
O          7.43217        36.19837        -2.22825
H          7.87872        35.66158        -2.92399
O         19.46746         5.74111         2.92699
H         19.62823         5.53106         1.98438
O         25.43460        12.11103         3.56634
H         25.26820        13.06020         3.76571
O         25.88962        27.13077        -2.35274
H         25.05452        27.35371        -2.81758
O         13.39365        33.58553        -3.43651
H         12.78928        32.96011        -3.89910
O         33.97921        39.50091         0.58327
H         34.56421        38.81163         0.98450
O         17.03455        29.46957        -3.72144
H         16.86192        28.52894        -3.96977
O         31.61292        43.10390        -2.41050
H         31.57267        42.37845        -3.06781
O         27.21561        55.01361         4.47966
H         26.47312        55.56255         4.84264
O         15.46593        14.12119        -1.55928
H         16.21128        14.37116        -2.14319
O         26.54908        22.94757         2.90508
H         26.93811        23.81239         3.17679
O         33.83805        22.39728        -1.62159
H         34.48318        21.84652        -2.11237
O         13.65737        43.44116         3.05942
H         14.41451        43.89619         3.48822
O         31.93614        43.07224         1.22448
H         31.95853        43.79388         1.88715
O         20.40455        36.07704        -3.32053
H         21.15481        36.50832        -3.78506
O         33.19658        29.27084         1.07959
H         32.35556        28.88835         1.43887
O         14.37568        29.46522        -3.57516
H         13.59976        30.02970        -3.82043
O         31.90785        26.59765        -2.34797
H         32.68745        26.07022        -2.62646
O         19.35023        48.50413        -0.92272
H         19.08425        49.44850        -0.95830
O         26.20289        42.06562         0.91010
H         25.99367        41.09340         0.93723
O         20.83768        26.93870        -2.94539
H         20.12124        27.40432        -3.43002
O         36.52855        33.79220         0.82770
H         37.34542        33.73268         1.36566
O         39.47085        31.01075         1.29535
H         38.58416        30.65812         1.56051
O         25.09897        18.47013         2.55539
H         24.63420        19.20947         3.02113
O         29.61644        47.38841         2.69780
H         29.47747        48.18637         3.25217
O         22.07650        48.74829        -0.84621
H         21.23519        48.53199        -1.32045
O         26.07706        30.96458        -3.43503
H         25.66671        31.53481        -4.12643
O          6.15963        31.20358        -2.15226
H          6.09137        32.17623        -2.30262
O         33.00839        32.27421         0.44815
H         33.06920        31.46850         1.01462
O         24.88538        56.44701         4.74694
H         24.03741        56.39351         5.25032
O         24.17021        43.04442        -2.86210
H         24.07266        42.19265        -3.38012
O         16.15662        22.92556         1.66834
H         16.69929        22.44888         2.33636
O         33.68879        35.65887        -3.66538
H         33.11999        36.27282        -4.17922
O         39.31432        33.95041        -2.63477
H         38.36153        33.86401        -2.87196
O         14.43182        30.81140        -0.11003
H         15.18649        30.26085         0.19301
O         32.26913        18.16179         3.16888
H         32.21666        19.07670         3.52925
O         25.80036        10.50499         0.29430
H         25.78584         9.57042         0.00055
O         30.21098        24.25135        -1.63438
H         30.73573        23.45424        -1.88452
O         30.13756        26.03624         1.51052
H         29.57591        25.75694         2.27253
O          9.53115        29.95459         0.92211
H          9.96412        29.20414         1.39641
O         26.75242        40.39310        -2.84791
H         26.61605        39.56123        -3.38828
H          5.83684        30.98365         0.92550
H          5.74292        33.32693         1.37362
H          7.42300        26.86991        -0.95108
H          6.22939        28.93475        -1.01031
H          7.26720        35.58811         1.02809
H          7.48876        38.01820        -0.27384
H          9.86985        22.56107        -0.88336
H          8.62881        24.69248        -0.97692
H          8.73458        39.93675         0.32046
H          9.97437        41.97514         0.81430
H         12.42135        18.29031        -0.58859
H         11.12311        20.39737        -0.65336
H         11.25351        43.88858         1.63511
H         12.62960        45.94844         2.48749
H         14.92769        14.22205         0.42419
H         13.69259        16.19212        -0.42702
H         13.91612        47.76740         3.28021
H         15.11578        50.38033         3.36022
H         17.20516        10.11641         1.66352
H         16.06494        12.08389         0.69957
H         16.06229        52.53044         2.82159
H         17.27839        54.72383         2.62906
H         20.27377         6.85463         4.44932
H         18.45945         8.02261         2.55880
H         18.51695        56.81218         2.44345
H         19.77031        58.93645         2.34607
H         23.03537         2.73076         4.29890
H         20.88552         3.97351         4.00326
H         23.14416        62.15947         1.42995
H         20.99802        61.00371         1.95245
H         25.21294         3.89360         3.96613
H         26.47522         5.94335         3.43981
H         26.49404        58.77970         1.73257
H         25.29459        60.89690         1.48515
H         27.74130         8.00038         3.03110
H         29.04041        10.08372         2.46492
H         29.13270        54.63527         2.59196
H         27.72825        56.69310         1.95672
H         30.25781        12.05966         1.62690
H         31.44616        13.96508         0.72561
H         31.50279        50.60537         1.06882
H         30.32500        52.62074         1.77851
H         32.56524        16.65721         0.25758
H         34.00534        18.40378         0.84915
H         33.97315        46.47079        -0.09105
H         32.75388        48.52129         0.46071
H         35.13801        20.38141         0.00393
H         36.51860        22.57787        -0.09663
H         36.46649        42.29141        -0.90883
H         35.22106        44.38673        -0.60939
H         37.80004        24.69261        -0.13951
H         39.09540        26.79585        -0.46403
H         39.04064        38.08860        -0.77733
H         37.72336        40.19515        -0.94420
H         40.40873        29.00816        -0.55810
H         41.67767        31.30763        -0.44276
H         41.63719        33.63623        -1.09034
H         40.32342        35.91481        -0.70354
