         324
 CSIRO Nanostructure Databank - Neutral Graphene Oxide Data Set
C         30.26507        57.04528         0.08727
C         30.29137        58.54753         0.15074
C         29.02990        59.22183        -0.33027
C         30.31648        61.22905        -0.87747
C         29.08166        60.51410        -0.76653
C         32.66741        52.76585         0.56915
C         32.66777        54.17316         0.42332
C         31.46977        54.90278         0.23019
C         32.73001        57.03457         0.16587
C         31.45648        56.32356         0.14183
C         32.77800        58.43736        -0.13520
C         31.50061        59.05963        -0.64822
C         32.78305        61.22174        -0.84301
C         31.54329        60.57131        -0.73636
C         35.12634        48.48280         1.32156
C         35.05457        49.94470         1.67980
C         33.84705        50.66793         1.13270
C         35.08669        52.80281         1.02720
C         33.85591        52.04885         0.89147
C         35.13742        54.18199         0.78768
C         33.91475        54.89441         0.50255
C         35.19957        57.02186         0.46053
C         33.91465        56.30428         0.36940
C         35.23298        58.50393         0.17721
C         33.96654        59.15018        -0.19088
C         35.25442        61.15624        -0.83572
C         34.01542        60.53032        -0.64576
C         37.87308        44.49999         0.33800
C         37.76603        45.83433         1.04151
C         36.51515        46.48218         0.99410
C         37.55442        48.55885         1.83770
C         36.34423        47.82915         1.42159
C         37.58883        49.91966         1.71734
C         36.34672        50.61399         1.18554
C         37.61362        52.84090         1.47653
C         36.30044        52.09706         1.45981
C         37.62099        54.23221         0.99194
C         36.41281        54.86621         0.73303
C         37.70672        56.98577         0.19554
C         36.41860        56.22118         0.08023
C         37.71730        58.37512        -0.12967
C         36.50507        59.11411        -0.24131
C         37.74121        61.09079        -0.96822
C         36.50563        60.46547        -0.68603
C         40.52983        40.67553        -0.76452
C         40.30800        41.49697         0.46772
C         39.12098        42.37894         0.26226
C         40.22484        44.25055         1.37140
C         39.10541        43.68227         0.66617
C         40.06329        45.59271         1.94890
C         38.86432        46.40767         1.68028
C         40.02940        48.55647         2.43256
C         38.70749        47.74981         2.40002
C         40.05418        49.97283         1.97843
C         38.84253        50.66876         1.76388
C         40.07746        52.72112         1.20330
C         38.86264        52.05330         1.44334
C         40.10006        54.14591         0.82212
C         38.88148        54.87520         0.72682
C         40.15624        56.91974         0.08529
C         38.91100        56.26553         0.34484
C         40.17718        58.29202        -0.31313
C         38.96000        59.02576        -0.40243
C         40.20974        61.01100        -1.14345
C         38.97136        60.39848        -0.82758
C         43.35622        38.61298        -4.11481
C         43.22631        39.09718        -2.81505
C         41.97027        39.54150        -2.35288
C         42.96526        40.64850        -0.34780
C         41.79871        40.27431        -1.14905
C         42.81420        41.66797         0.62472
C         41.55163        42.27074         0.83926
C         42.68160        44.16788         1.96518
C         41.45787        43.54479         1.45958
C         42.64286        45.60449         2.20187
C         41.34647        46.30519         2.36771
C         42.57977        48.50475         2.03914
C         41.34798        47.80720         2.43776
C         42.56275        49.91672         1.85028
C         41.29146        50.64607         1.81366
C         42.53675        52.74798         1.27757
C         41.27694        51.99720         1.39390
C         42.50697        53.87487         0.27313
C         41.31215        54.77703         0.47601
C         42.58544        56.79767        -0.26868
C         41.36998        56.16133         0.10720
C         42.62529        58.17458        -0.63613
C         41.41010        58.92262        -0.66090
C         42.66271        60.87721        -1.48394
C         41.42562        60.29244        -1.08308
C         46.00862        38.38807        -6.79428
C         44.76608        38.31060        -6.20122
C         45.92497        38.58115        -3.92096
C         44.62991        38.28451        -4.74742
C         45.78861        39.05403        -2.51053
C         44.38591        39.25173        -1.89860
C         45.38737        40.46731         0.03361
C         44.25284        40.14288        -0.71118
C         45.26626        41.24538         1.27437
C         43.93704        42.07158         1.50343
C         45.08508        44.16976         2.54063
C         43.89219        43.45608         2.06995
C         45.05264        45.67675         2.75840
C         43.80567        46.34256         2.26380
C         45.01715        48.38762         1.67522
C         43.81420        47.77451         2.02754
C         44.96942        49.78348         1.11848
C         43.77204        50.56424         1.56556
C         45.09237        52.69111         1.03338
C         43.83729        52.00820         1.42324
C         45.08373        54.00571         0.66355
C         43.83917        54.59828         0.11908
C         45.13611        56.75514        -0.27827
C         43.84392        56.02723        -0.27558
C         45.10297        58.02274        -1.04550
C         43.84369        58.79837        -1.05838
C         45.10293        60.78414        -2.08486
C         43.85259        60.14273        -1.49327
C         47.17539        38.70555        -6.06459
C         48.17010        39.62842        -4.00825
C         47.12619        38.97477        -4.68092
C         48.07437        40.04854        -2.64573
C         46.89196        39.80220        -1.91488
C         47.94379        40.95924         0.09129
C         46.75181        40.22870        -0.51132
C         47.72959        41.79129         1.29972
C         46.51053        41.72828         1.88973
C         47.53238        44.35713         3.34469
C         46.25617        43.61945         2.98530
C         47.54763        45.77388         2.73916
C         46.35190        46.33617         2.35007
C         47.54306        48.32116         1.20980
C         46.27955        47.62746         1.62902
C         47.43327        49.80011         0.95579
C         46.27204        50.54571         1.22008
C         47.57140        52.64831         0.95890
C         46.33460        51.95503         1.12755
C         47.61278        54.09282         0.80417
C         46.30522        54.86888         0.90687
C         47.56337        56.93161         0.07136
C         46.29494        56.17097         0.12493
C         47.63703        58.15532        -0.71390
C         46.40997        58.71318        -1.31366
C         47.62848        60.73985        -1.89121
C         46.42148        60.13495        -1.70329
C         49.16305        40.77366        -2.06045
C         50.15887        42.03440        -0.19219
C         49.12025        41.26102        -0.75368
C         50.16722        42.47077         1.15937
C         48.94782        42.26295         2.07059
C         49.96239        43.92741         3.47904
C         48.79326        43.51493         2.94059
C         49.97463        46.10069         3.18357
C         48.79081        46.49950         2.56046
C         50.20666        48.32268         1.49518
C         48.80923        47.90494         1.98623
C         50.42676        49.45484         0.73159
C         48.53373        50.51680         0.48402
C         50.09359        52.47595         0.83559
C         48.73793        51.88686         0.69713
C         50.10226        54.02368         0.78280
C         48.81403        54.73059         0.59629
C         50.11758        56.78649        -0.16098
C         48.89124        56.19208         0.35856
C         50.10385        58.07052        -0.69524
C         48.85870        58.76992        -0.96079
C         50.07023        60.44440        -2.25772
C         48.87558        60.01950        -1.69017
C         51.33493        42.92815         1.74207
C         52.46267        44.39801         3.32929
C         51.35197        43.38829         3.19172
C         52.47487        45.78071         3.08183
C         51.27710        46.55550         2.82566
C         52.63883        48.41066         1.94969
C         51.37748        47.77677         2.11411
C         52.69741        49.74359         1.45064
C         51.52796        50.34883         0.91346
C         52.58086        52.55596         0.99284
C         51.41354        51.76780         0.76523
C         52.56586        54.01181         0.77911
C         51.37386        54.67762         0.47025
C         52.63437        56.83306        -0.08696
C         51.38670        55.97522        -0.29724
C         52.60647        58.07308        -0.75404
C         51.33753        58.61842        -1.21908
C         52.47213        60.12543        -2.90691
C         51.28283        59.73010        -2.06772
C         53.73201        46.46560         2.95561
C         55.05139        48.52329         2.42487
C         53.82625        47.78170         2.46712
C         55.09337        49.86774         2.03683
C         53.87573        50.51885         1.58179
C         54.97708        52.69905         1.72018
C         53.80591        51.89789         1.31275
C         54.92239        54.19230         1.60447
C         53.76270        54.80886         0.90233
C         54.96235        56.92385         0.90723
C         53.77292        56.19386         0.56169
C         54.98569        58.77288        -0.44320
C         53.78585        58.84868        -1.14000
C         54.97618        60.08063        -2.89566
C         53.78663        59.66871        -2.32407
C         56.30517        50.62907         2.01453
C         57.48233        52.75528         1.60121
C         56.29594        52.01009         1.80903
C         57.48683        54.15185         1.40929
C         56.24520        54.93813         1.79258
C         57.42276        56.97003         0.98610
C         56.19823        56.30846         1.18145
C         57.46211        58.75131        -0.43259
C         56.23188        59.12538        -1.02498
C         57.48437        59.94194        -2.95523
C         56.24308        59.71243        -2.33468
C         58.64020        54.84978         1.03083
C         59.78710        56.88376         0.19822
C         58.64626        56.25917         0.76601
C         59.83392        58.00378        -0.68466
C         58.66397        58.73607        -1.14197
C         59.94081        59.62177        -3.04860
C         58.68793        59.44216        -2.40061
C         61.04801        58.25907        -1.36424
C         61.09643        59.07797        -2.50030
O         40.76142        48.34698         3.67995
O         46.92311        47.47476         0.21539
O         45.45857        37.24180        -4.11708
O         57.43447        58.35526         0.91627
O         45.16451        38.06188        -1.62987
O         35.31360        57.94734         1.56166
O         44.30208        40.90214         2.30648
O         54.57150        53.53309         2.88054
O         50.12193        53.30025         2.05307
O         49.95627        45.12979         4.19787
O         43.23508        52.83878         2.53260
O         45.76626        57.86872        -2.35958
O         54.95343        58.31039         0.88474
O         40.50944        45.67891         3.36629
O         46.35568        42.23624         3.18951
O         36.84762        52.58453         2.71064
O         47.71624        39.53709         0.38369
O         49.49567        49.81553        -0.23372
O         43.96850        54.96331        -1.32483
O         48.22045        57.00185         1.39355
O         36.23915        55.97860        -1.36739
H         36.98053        55.41068        -1.66776
O         46.20605        55.27136         2.31181
H         46.96721        55.87747         2.48199
O         36.38168        50.50914        -0.26353
H         36.27144        49.56127        -0.49422
O         47.53453        44.48903         4.77881
H         47.46924        43.58986         5.16234
O         42.24770        53.16327        -0.97621
H         42.62038        53.72872        -1.69563
O         44.96771        45.87153         4.21239
H         44.14977        45.43374         4.53068
O         44.80953        49.59015        -0.35209
H         45.48117        48.91649        -0.61404
O         36.68876        43.72371         0.55215
H         36.67593        43.44041         1.48953
O         56.40816        55.21487         3.21500
H         55.87392        54.53409         3.69283
O         51.63933        42.27507         4.06670
H         50.91772        41.61445         3.92398
O         31.31735        58.57358        -2.01066
H         32.03511        58.94876        -2.56226
O         49.29745        41.17209         2.98163
H         49.21142        40.32955         2.48499
O         30.46199        58.91342         1.55341
H         30.47959        59.89277         1.60113
O         51.43419        55.54230        -1.72064
H         52.29559        55.09503        -1.86295
O         52.28830        59.58009        -4.23065
H         52.12431        58.61851        -4.14239
O         45.13568        62.18541        -1.80430
H         45.20860        62.30726        -0.83588
O         35.02314        50.08328         3.12953
H         34.33165        49.48605         3.48165
O         48.65577        48.77577         3.17136
H         49.28323        48.47424         3.86348
O         38.34652        47.44173         3.76585
H         39.17804        47.16417         4.21940
O         40.01504        40.59288         1.60052
H         40.80950        40.03369         1.73775
H         29.30052        56.51382         0.08446
H         28.06234        58.71664        -0.19248
H         30.29536        62.30957        -1.08173
H         28.15046        61.04547        -1.01388
H         31.71607        52.21873         0.49447
H         30.51269        54.36052         0.20282
H         32.80937        62.30079        -1.06038
H         34.22686        47.93419         1.00282
H         32.88684        50.12914         1.08610
H         35.27476        62.20700        -1.16078
H         37.90106        44.71919        -0.76869
H         35.65843        45.93568         0.57383
H         37.75049        62.13655        -1.30931
H         39.66406        40.39536        -1.38263
H         38.23192        41.95643        -0.22944
H         40.21941        62.05743        -1.48304
H         42.46794        38.64947        -4.76462
H         41.08145        39.33675        -2.96902
H         42.67796        61.92311        -1.82371
H         46.08188        38.32647        -7.88971
H         43.85641        38.28629        -6.81840
H         45.00804        60.69259        -3.20383
H         48.10842        38.90664        -6.60974
H         49.09489        39.85466        -4.55964
H         47.67158        61.77323        -2.26724
H         50.04846        40.97620        -2.68021
H         51.05306        42.22964        -0.80405
H         50.08255        61.34560        -2.88826
H         52.24816        43.01979         1.13532
H         53.45246        43.93288         3.47523
H         52.49837        61.23960        -3.03118
H         54.65078        45.93188         3.24281
H         55.97544        48.03914         2.77472
H         54.95186        60.67568        -3.81980
H         57.26598        50.11054         2.14920
H         58.43510        52.20781         1.53266
H         57.51957        60.46797        -3.92012
H         59.56337        54.28161         0.83830
H         60.71444        56.28720         0.23105
H         59.98569        60.19391        -3.98583
H         61.96383        57.75234        -1.02690
H         62.06120        59.23800        -3.00234
