         210
 CSIRO Nanostructure Databank - Neutral Graphene Oxide Data Set
C         30.44898        32.06349         1.27011
C         30.55173        32.81132         0.21615
C         30.70847        35.74589        -0.89343
C         30.77265        36.88950        -1.42423
C         30.75295        39.93774        -2.11291
C         30.76415        41.16251        -2.32763
C         32.75099        30.23001         3.69044
C         31.71483        30.71906         3.08425
C         32.87294        31.67228         1.19197
C         31.45790        31.35569         1.91594
C         32.87318        33.15774         0.86351
C         31.68109        33.75330         0.36102
C         32.81819        35.98363         0.11717
C         31.66271        35.07069        -0.11977
C         32.94520        37.27334        -0.61292
C         31.86925        37.77375        -1.38100
C         33.12097        39.96554        -1.64320
C         31.97667        39.05045        -2.14905
C         33.09432        41.37558        -1.91312
C         31.86974        42.05896        -2.19527
C         33.02964        44.17060        -2.07135
C         32.03993        43.46080        -2.35247
C         35.99191        27.50078         2.80893
C         35.88327        28.92178         2.71347
C         33.97729        30.25178         3.02030
C         35.35617        31.77908         1.56326
C         34.12499        31.19784         1.92694
C         35.34481        33.12029         0.99485
C         34.11408        33.82574         0.82459
C         35.37006        35.97881         0.30608
C         34.11692        35.28536         0.60199
C         35.36675        37.35079        -0.08655
C         34.17940        37.99686        -0.55912
C         35.45787        40.12936        -0.81927
C         34.24277        39.36211        -1.04041
C         35.52806        41.51050        -1.15305
C         34.37893        42.12032        -1.83689
C         35.52104        44.40786        -1.37801
C         34.40170        43.69226        -1.97828
C         35.60442        45.81110        -1.22596
C         38.00729        27.40803         1.46172
C         36.89985        26.91219         2.17315
C         37.90658        28.83953         1.29654
C         36.76694        29.56594         1.83873
C         37.87725        31.73029         1.11295
C         36.67989        31.06874         1.71966
C         37.79747        33.15354         0.70533
C         36.56919        33.83795         0.73755
C         37.81081        35.94924         0.29893
C         36.57099        35.25127         0.42865
C         37.82264        37.36634         0.11901
C         36.61186        38.06132        -0.10910
C         37.85634        40.19991        -0.24461
C         36.63316        39.47046        -0.37406
C         37.87270        41.61541        -0.41544
C         36.69270        42.27952        -0.86990
C         37.87566        44.46776        -0.53799
C         36.69856        43.73152        -0.95391
C         37.88909        45.91018        -0.52553
C         36.62957        46.44383        -0.88288
C         40.32983        24.59516         0.77445
C         39.33757        25.28260         1.10541
C         40.30087        27.34971         0.52407
C         39.13871        26.68339         1.03487
C         40.23053        28.78223         0.39580
C         39.04648        29.48410         0.72794
C         40.24785        31.66696         0.29671
C         38.92499        30.93992         0.34615
C         40.25386        33.08093         0.33587
C         39.01945        33.81980         0.45504
C         40.27847        35.94498         0.27875
C         39.03564        35.23838         0.34907
C         40.29079        37.38162         0.26623
C         39.06959        38.07814         0.14486
C         40.28324        40.22734         0.19200
C         39.06917        39.50489         0.04086
C         40.25282        41.64508         0.18479
C         39.07882        42.34485        -0.12793
C         40.26640        44.52390         0.15862
C         39.07901        43.79599        -0.16506
C         40.28238        45.96069         0.12268
C         39.05935        46.63267        -0.21588
C         40.23064        48.72757         0.09799
C         39.22251        48.03892        -0.17602
C         42.76718        24.59899        -0.11162
C         41.53486        25.15999         0.28069
C         42.64522        27.34655        -0.28710
C         41.49088        26.61565         0.16805
C         42.57857        28.77910        -0.39406
C         41.41881        29.49194        -0.05464
C         42.63069        31.67813        -0.20238
C         41.42373        30.94982        -0.01344
C         42.69094        33.07299        -0.02226
C         41.47833        33.80264         0.18755
C         42.73907        35.97092         0.05043
C         41.47907        35.22341         0.18216
C         42.77000        37.41129         0.36466
C         41.53596        38.10399         0.34766
C         42.77946        40.21716         0.32130
C         41.53317        39.52619         0.34376
C         42.76846        41.71172         0.07361
C         41.49931        42.33862         0.66526
C         42.65450        44.51422         0.80065
C         41.48071        43.83525         0.49657
C         42.65553        45.96218         0.83864
C         41.47491        46.69424         0.46322
C         42.69975        48.72088         0.87960
C         41.47693        48.15671         0.47711
C         43.74236        25.29625        -0.49688
C         45.06130        27.40397        -1.00845
C         43.87623        26.68690        -0.63819
C         45.07151        28.82431        -1.07153
C         43.76668        29.49503        -0.91808
C         45.11212        31.68250        -0.74105
C         43.80551        31.00811        -0.76603
C         45.13829        33.05823        -0.34744
C         43.96661        33.74188        -0.06626
C         45.22403        35.89818         0.65995
C         44.02146        35.22338         0.01488
C         45.27047        37.39204         0.39045
C         44.01211        38.09967         0.38902
C         45.27630        40.28655         0.09720
C         43.99013        39.52792         0.35209
C         45.22155        41.70219         0.63660
C         44.00365        42.39829         0.61256
C         45.09270        44.44635         1.35573
C         43.92035        43.77913         0.97420
C         44.95865        45.86629         1.92373
C         43.83209        46.62322         1.28959
C         43.67660        48.00810         1.25139
C         47.33926        27.53753        -1.67412
C         46.32807        26.86734        -1.35280
C         47.47832        28.94070        -1.75987
C         46.24225        29.59358        -1.38836
C         47.45898        31.83961        -1.52843
C         46.25599        31.02345        -1.18956
C         47.60277        33.18896        -0.93136
C         46.44838        33.73689        -0.21339
C         47.74009        35.92486         0.10026
C         46.50580        35.15497         0.30545
C         47.74452        37.31091         0.36706
C         46.51095        38.06279         0.41218
C         47.71686        40.22147         0.69409
C         46.54494        39.52423         0.45713
C         47.70430        41.67419         0.88222
C         46.42545        42.37022         0.95295
C         47.57641        44.50346         1.38771
C         46.35761        43.77297         1.25482
C         47.30881        45.85066         1.68455
C         46.30441        46.59141         1.75567
C         49.90536        29.15270        -2.39790
C         48.66070        29.65486        -2.09191
C         50.01060        31.97607        -2.21304
C         48.67489        31.17222        -2.10866
C         50.06024        33.18630        -1.25318
C         48.84127        33.85218        -0.83078
C         50.17755        35.79697         0.02617
C         48.91120        35.19276        -0.26908
C         50.23425        37.07842         0.68582
C         49.05975        38.00593         0.47242
C         50.23359        40.31217         1.16510
C         49.04107        39.51134         0.71271
C         50.19207        41.72190         0.92677
C         48.89939        42.38260         1.00343
C         50.05325        44.51736         0.75319
C         48.89341        43.83571         1.48672
C         51.05384        29.73655        -2.41307
C         52.42871        31.81720        -1.73640
C         51.31833        31.04212        -2.12890
C         52.42417        32.92353        -1.15692
C         51.28108        33.74181        -0.84428
C         52.43462        35.55325         0.52308
C         51.34091        34.97196        -0.13114
C         52.52630        36.58315         1.24170
C         51.39738        37.43538         1.38861
C         52.57463        40.54581         1.58702
C         51.42438        39.73177         1.65353
C         52.52182        41.75821         1.22026
C         51.40775        42.51538         0.86692
C         51.14283        43.91154         0.75254
O         49.30719        38.94865        -0.64302
O         34.75412        42.82155        -3.07171
O         37.74991        31.64841         2.56746
O         51.43135        38.49594         2.26562
O         43.47939        30.37256        -2.05714
O         35.02897        29.58129         3.56435
O         43.51186        35.77632        -1.23775
O         46.74425        34.03117         1.23404
O         47.69685        31.75609        -3.01904
O         33.23978        36.03469         1.50643
O         32.26301        38.71789        -3.50697
H         32.29782        39.54397        -4.03351
O         44.69309        45.74384         3.32047
H         44.48852        46.63258         3.67939
O         38.40412        30.95261        -1.02707
H         39.07526        30.53819        -1.61021
O         45.31698        40.46447        -1.37107
H         45.48801        39.58551        -1.77351
O         41.58715        42.07951         2.10000
H         40.79029        42.45419         2.53001
O         45.02408        35.77029         2.09596
H         45.55530        34.99214         2.38894
O         42.76277        41.91097        -1.35994
H         43.59844        41.51461        -1.70711
O         32.84955        30.94453        -0.04053
H         32.06469        31.25147        -0.54792
O         49.23739        43.80287         2.88216
H         49.13635        44.70771         3.24696
O         50.06533        32.53280        -3.53073
H         49.14355        32.54946        -3.88412
