         252
 CSIRO Nanostructure Databank - Neutral Graphene Oxide Data Set
C         30.45441        31.58071        -0.36564
C         30.44770        32.82743        -0.52489
C         30.40724        36.06473        -0.85254
C         30.39172        37.30030        -1.03359
C         30.42175        40.51001        -0.63167
C         30.40372        41.77379        -0.65896
C         32.77843        28.92745         0.82874
C         31.73840        29.44030         0.37920
C         32.77484        31.59898         0.26342
C         31.56201        30.81271         0.05259
C         32.72024        33.08073         0.11579
C         31.47490        33.78758        -0.38572
C         32.75604        35.92427        -0.62421
C         31.46362        35.14892        -0.57441
C         32.73359        37.40443        -0.31632
C         31.45316        38.18269        -0.50214
C         32.75637        40.35464        -0.65877
C         31.52024        39.64706        -0.64021
C         32.79304        41.77514        -0.67403
C         31.56905        42.54963        -0.63976
C         32.85371        44.52778        -0.28166
C         31.78542        43.96407        -0.56765
C         35.24008        27.42854         1.01995
C         35.23903        28.87715         1.37894
C         33.94650        29.65168         1.43548
C         35.27331        31.68352         0.51078
C         33.98652        31.02508         0.69930
C         35.31518        33.06833         0.07059
C         34.03970        33.80882         0.04740
C         35.32332        35.96149        -0.40244
C         34.05001        35.20089        -0.48122
C         35.28240        37.32674        -0.54818
C         34.06261        38.16488        -0.17058
C         35.30672        40.29819        -0.48641
C         34.04210        39.55041        -0.90070
C         35.34691        41.65828        -0.31277
C         34.12284        42.46580        -0.62496
C         35.36210        44.54857         0.36183
C         34.20421        43.98643        -0.41633
C         35.69478        45.97414         0.10303
C         37.67965        27.30915         1.25733
C         36.34731        26.84899         1.09763
C         37.74226        28.71607         0.58998
C         36.54601        29.57411         1.05965
C         37.68316        31.50731        -0.17389
C         36.49153        30.97738         0.61939
C         37.83607        33.04876         0.01324
C         36.51129        33.77587        -0.17961
C         37.79559        35.90112        -0.60494
C         36.54639        35.18155        -0.41662
C         37.78934        37.27380        -0.77801
C         36.51424        38.07477        -0.96956
C         37.83680        40.15950        -0.16303
C         36.52886        39.46096        -0.33025
C         37.85151        41.63843        -0.07012
C         36.61156        42.37773        -0.06899
C         37.93547        44.45982         0.05084
C         36.67142        43.77626         0.05219
C         38.07907        45.91474        -0.36675
C         36.76213        46.57173        -0.02786
C         40.27703        25.28523         2.83265
C         39.09877        25.58437         2.56064
C         40.51583        27.89914         1.77930
C         38.55461        26.86825         2.21315
C         40.35264        28.83820         0.79090
C         39.05673        29.52186         0.61605
C         40.22589        31.44751        -0.45033
C         39.00562        30.80633         0.14230
C         40.27712        32.92398        -0.65738
C         38.95421        33.64560        -0.86838
C         40.24178        35.78789        -0.99526
C         39.06383        35.16030        -0.73373
C         40.38078        37.29149        -1.17052
C         39.04311        38.02059        -1.03144
C         40.39750        40.12321        -0.37038
C         39.07489        39.47725        -0.67542
C         40.35606        41.54917         0.06267
C         39.06731        42.27663         0.12141
C         40.36871        44.31656         0.56618
C         39.14623        43.70410         0.23674
C         40.56059        45.77365         0.38700
C         39.36767        46.68670        -0.06500
C         40.28265        48.34113         1.52034
C         39.32994        47.76345         0.99050
C         42.87489        25.13483         2.67715
C         41.60678        25.73536         2.57385
C         42.91574        27.54834         1.44415
C         41.69242        27.04664         1.96010
C         42.87317        28.71873         0.52338
C         41.55826        29.28900         0.06226
C         42.81680        31.36583        -0.82324
C         41.50499        30.65944        -0.55554
C         42.75693        32.86319        -1.01666
C         41.44782        33.56012        -0.91549
C         42.72111        35.65387        -0.63889
C         41.50232        35.01729        -1.32864
C         42.68863        37.04557        -0.10821
C         41.50167        37.89347        -0.31919
C         42.70289        39.87902         0.54713
C         41.56509        39.26318        -0.01304
C         42.65851        41.24604         1.20158
C         41.49936        42.13871         0.77657
C         42.66727        44.14551         1.63551
C         41.47677        43.49509         1.02267
C         42.61064        45.62982         1.97949
C         41.77794        46.42503         0.97295
C         42.81978        48.36940         2.18782
C         41.73431        48.24700         1.20492
C         43.95664        25.63533         2.26051
C         45.38270        27.42883         1.09249
C         44.16628        26.85764         1.58704
C         45.43175        28.89571         0.80232
C         44.08661        29.58806         0.48690
C         45.29595        31.49246        -0.49745
C         44.09738        30.81667        -0.30147
C         45.26118        32.84483        -1.14913
C         44.02692        33.63900        -0.93899
C         45.27346        35.83188        -1.12850
C         44.04668        34.99680        -0.88378
C         45.19478        37.24839        -0.60884
C         44.00677        37.70868         0.19137
C         45.30705        39.92262         0.56326
C         43.98370        39.14056         0.62525
C         45.14492        41.41584         0.71148
C         43.96773        42.00324         1.04258
C         45.19953        44.23460         1.24132
C         43.96279        43.41113         1.50850
C         45.16925        45.57570         2.00021
C         44.00082        46.23545         2.22405
C         43.78863        47.64253         2.45057
C         47.71701        27.46740         0.47888
C         46.64525        26.90379         0.86682
C         47.92036        28.83517         0.23865
C         46.65502        29.55787         0.31284
C         47.78247        31.60643        -0.43024
C         46.55570        30.89107        -0.12720
C         47.73033        32.73870        -1.18812
C         46.54115        33.57337        -1.45836
C         47.95513        35.87244        -1.27399
C         46.63438        35.11742        -1.47319
C         47.96712        37.30778        -1.50757
C         46.00309        38.21710        -1.11964
C         47.53314        40.26021        -0.56001
C         46.10082        39.67126        -0.73605
C         47.60338        41.44762         0.15154
C         46.42770        42.13447         0.71960
C         47.82808        43.96334         1.77355
C         46.48215        43.40512         1.25696
C         47.61839        45.45662         1.89599
C         46.52830        45.97738         2.17489
C         50.46710        29.15052         0.14761
C         49.15126        29.53675         0.04548
C         50.35598        31.86647         0.26608
C         49.08144        31.04877         0.07349
C         50.38954        33.36130         0.10423
C         49.50481        33.96012        -0.73034
C         50.29871        36.18860        -0.38679
C         49.15602        35.36257        -0.74767
C         50.35075        37.55282        -1.04947
C         48.97352        38.18551        -1.15523
C         49.94063        40.45510        -1.20347
C         48.81582        39.65187        -1.05964
C         49.72079        41.96986        -1.13172
C         48.87322        42.23712         0.11858
C         49.76213        44.58496         0.12306
C         48.96193        43.55755         0.85262
C         51.58376        29.78871         0.22402
C         52.71511        32.14573         0.50940
C         51.71389        31.15255         0.30726
C         52.67450        33.38737         0.60083
C         51.42275        34.24222         0.82517
C         52.49939        36.57956         0.26830
C         51.42383        35.62323         0.20718
C         52.57881        37.71760        -0.23170
C         51.36311        38.58245        -0.45945
C         52.35292        40.86330        -0.95661
C         51.36621        39.80524        -1.38021
C         52.17915        42.08596        -1.18921
C         51.02079        42.87091        -1.09139
C         50.74729        44.10179        -0.54213
O         39.45799        27.84277         2.69984
O         46.86763        37.88197        -2.16142
O         42.29830        28.34412        -0.77717
O         40.74094        41.16367        -1.33683
O         40.60096        30.71948        -1.69361
O         38.10762        45.41811        -1.66256
O         37.18177        39.50656         0.97703
O         43.28729        43.48857         2.81279
O         44.11036        38.03056         1.61566
O         49.48385        31.54138         1.41401
O         38.91917        39.06671        -2.06611
O         34.42994        43.42449        -1.71181
O         49.66069        42.37793         1.34187
O         42.45610        35.86781         0.78297
O         45.75181        32.96164        -2.53179
O         44.71088        29.69439         1.79903
O         45.77374        35.67533        -2.48964
O         41.83489        46.03115        -0.37712
O         36.13352        29.26863         2.45516
O         33.48022        35.46614        -1.82165
O         33.27482        33.74267         1.30651
O         48.91947        33.19462        -1.74273
O         42.85968        31.93087        -2.16019
O         31.86373        37.69643         0.82596
O         34.25034        38.45254         1.23061
H         33.37471        38.36551         1.67815
O         45.05319        44.61626        -0.15999
H         45.80082        45.20508        -0.39991
O         42.00992        48.83190         0.00244
H         41.30464        48.59273        -0.64409
O         48.02710        43.40527         3.05887
H         48.86472        42.88840         3.04719
O         35.05054        44.33655         1.74265
H         35.63163        44.90172         2.29256
O         50.93213        39.05080         0.80277
H         51.01919        38.33932         1.47034
O         38.59245        33.41199        -2.25978
H         39.32507        33.74416        -2.82460
O         45.45840        40.42223        -1.79094
H         45.90292        40.20571        -2.63787
O         46.15768        39.48375         1.63987
H         45.62368        38.87976         2.21069
O         39.74762        47.33935        -1.26879
H         39.24961        46.88755        -1.99705
O         41.66983        35.02328        -2.76052
H         42.45108        34.47541        -2.98975
O         40.86509        37.49785        -2.52112
H         40.42161        38.31419        -2.86021
O         38.26345        33.27551         1.37410
H         37.52392        33.05299         1.97806
O         33.64462        29.94766         2.79247
H         34.39955        29.65574         3.35095
O         34.05536        39.27766        -2.31512
H         34.29222        40.09640        -2.79900
O         51.62852        39.48529        -2.72738
H         51.85816        40.30206        -3.21423
O         42.45111        40.96412         2.61811
H         42.71051        41.77927         3.11668
O         51.17204        34.36970         2.20879
H         51.08237        33.47446         2.59841
O         37.53132        28.44802        -0.80979
H         37.50669        29.30745        -1.30243
O         41.86273        45.72159         3.20957
H         42.33111        45.18448         3.88487
O         50.78811        37.25220        -2.39616
H         50.16021        36.61281        -2.79254
O         37.36024        31.18162        -1.55341
H         37.91495        31.75548        -2.14286
O         36.41299        38.30884        -2.40594
H         36.20024        37.45863        -2.84494
O         48.92557        42.37010        -2.25463
H         49.36445        42.08416        -3.08181
