         429
 CSIRO Nanostructure Databank - Neutral Graphene Oxide Data Set
C          1.63459         3.58554         2.50933
C          0.51555         4.37498         2.94388
C          1.30500         6.24578         1.50934
C          0.37078         5.66539         2.54642
C          1.35265         7.75768         1.47171
C          0.18030         8.48229         1.64070
C          1.31736        10.60142         1.21062
C          0.16228         9.88048         1.52974
C          1.30421        12.05259         1.11504
C          0.10272        12.78423         1.28108
C          1.25868        14.90333         0.94229
C          0.07854        14.16155         1.18770
C          1.23086        16.33941         0.78765
C          0.01342        17.06449         0.81089
C          1.16911        19.16538         0.36469
C         -0.01718        18.42957         0.60383
C          1.14817        20.58801         0.11969
C         -0.11025        21.32267         0.04184
C          1.04702        23.48704        -0.07676
C         -0.18636        22.67095        -0.05508
C          1.07693        24.98869        -0.28975
C         -0.16348        25.79446        -0.35939
C          1.04718        27.85639        -1.04757
C         -0.16619        27.11486        -0.61479
C          1.10888        29.33564        -0.93896
C         -0.03156        30.10788        -0.77755
C          1.20420        32.24191        -0.94032
C         -0.01240        31.51408        -0.87949
C          1.25885        33.67175        -0.97438
C          0.08838        34.46187        -1.29710
C          1.36171        36.59259        -1.02932
C          0.13343        35.80997        -1.40495
C          1.52381        37.86734        -1.81357
C          3.90839         3.36836         1.46357
C          2.70293         4.18455         1.86561
C          3.84022         6.29721         1.29010
C          2.65937         5.58306         1.57150
C          3.76849         7.71083         1.01095
C          2.55966         8.44148         1.12118
C          3.70830        10.62063         0.65179
C          2.54187         9.88734         0.97099
C          3.73668        12.05394         0.65634
C          2.50416        12.76879         0.86973
C          3.70819        14.92065         0.60219
C          2.48972        14.19814         0.80677
C          3.69312        16.34345         0.54146
C          2.44566        17.05202         0.58243
C          3.64309        19.18079         0.19911
C          2.41573        18.46759         0.37598
C          3.61864        20.59942        -0.06259
C          2.34946        21.26947        -0.08886
C          3.56415        23.48527        -0.54282
C          2.29150        22.71724        -0.41790
C          3.54771        24.97258        -0.55526
C          2.34849        25.64007        -0.70040
C          3.65240        27.78311        -1.14497
C          2.33304        27.05914        -1.14704
C          3.67725        29.28398        -1.17890
C          2.37157        30.07056        -1.37389
C          3.62374        32.15780        -0.56421
C          2.42718        31.49910        -0.86672
C          3.69682        33.57272        -0.59246
C          2.51720        34.32901        -0.85103
C          3.86620        36.36080        -1.13366
C          2.61192        35.74722        -1.03057
C          3.96146        37.72339        -1.62187
C          2.74005        38.39767        -2.04168
C          6.39441         3.50005         1.19163
C          5.17157         4.19022         1.32253
C          6.35805         6.36791         1.25913
C          5.09915         5.59272         1.26550
C          6.29452         7.81200         0.84769
C          4.96617         8.39439         0.52230
C          6.21723        10.64373         0.29501
C          4.94067         9.91012         0.31349
C          6.19246        12.05097         0.24708
C          4.93899        12.76468         0.40458
C          6.13344        14.93335         0.18907
C          4.93917        14.20936         0.40069
C          6.16439        16.35462         0.28349
C          4.91768        17.07349         0.43491
C          6.12174        19.26037         0.38795
C          4.87502        18.48708         0.32833
C          6.11173        20.65803        -0.09303
C          4.82935        21.30698        -0.29281
C          6.02574        23.43538        -0.53650
C          4.84275        22.74641        -0.43189
C          6.06328        24.89665        -0.16229
C          4.80941        25.67643        -0.53610
C          6.08905        27.80611        -0.55026
C          4.85753        27.05066        -0.68154
C          6.12003        29.18614        -0.44006
C          4.83483        29.92468        -0.45826
C          6.06462        32.10820         0.37337
C          4.80604        31.37681        -0.11584
C          6.12248        33.55503        -0.06684
C          4.98096        34.23806        -0.44727
C          6.31229        36.29738        -0.84025
C          5.06303        35.64328        -0.80443
C          6.39548        37.63074        -1.37831
C          5.19644        38.30844        -1.78213
C          8.83409         3.50638         0.73557
C          7.61793         4.16180         0.95683
C          8.81320         6.35994         0.45386
C          7.65115         5.63888         1.05750
C          8.70159         7.82220         0.19532
C          7.50279         8.51122         0.35434
C          8.66688        10.65251         0.01202
C          7.44875         9.93256         0.18989
C          8.63265        12.08572        -0.08636
C          7.41259        12.76020         0.01888
C          8.62905        14.95337        -0.25503
C          7.32939        14.21074        -0.37555
C          8.61967        16.35790        -0.16442
C          7.39628        17.04998         0.12131
C          8.65275        19.23184        -0.12587
C          7.45622        18.50143         0.30805
C          8.64980        20.74335         0.02800
C          7.29752        21.32268        -0.31653
C          8.53408        23.45801        -1.00724
C          7.24745        22.66182        -0.99028
C          8.29138        24.84632        -1.26545
C          7.24835        25.57835        -0.77063
C          8.61496        27.76541        -0.25079
C          7.33589        27.02159        -0.43997
C          8.54233        29.21916        -0.06096
C          7.35013        29.91338        -0.14892
C          8.56668        32.04808         0.17332
C          7.36440        31.36382         0.07623
C          8.63987        33.48641         0.21372
C          7.37033        34.31757         0.32135
C          8.72901        36.33357        -0.33701
C          7.50309        35.66815        -0.35213
C          8.83494        37.63408        -1.00268
C          7.64343        38.22549        -1.51450
C         11.18852         3.40512         0.20713
C         10.00970         4.14936         0.23621
C         11.09211         6.41536        -0.52544
C          9.83065         5.56819        -0.36199
C         11.13387         7.77650        -0.24308
C          9.91272         8.53548        -0.03673
C         11.15522        10.70783        -0.11242
C          9.89395         9.94078        -0.06989
C         11.09155        12.15266        -0.42234
C          9.86928        12.82464        -0.31001
C         11.09132        14.97409        -0.44411
C          9.85495        14.25663        -0.36825
C         11.07499        16.41018        -0.53170
C          9.84598        17.08100        -0.35797
C         10.98576        19.21871        -0.88625
C          9.80937        18.51979        -0.44389
C         10.76100        20.58439        -1.24449
C          9.76768        21.41203        -0.75924
C         11.10684        23.60884        -0.87535
C          9.81205        22.86630        -0.96778
C         11.22257        25.02962        -0.68995
C         10.16875        25.95063        -1.03876
C         11.08531        27.83820         0.15772
C          9.95768        27.17363        -0.44070
C         10.98872        29.10438         0.65895
C          9.69615        29.88465         0.64383
C         11.07827        31.98710         0.70115
C          9.88687        31.28718         0.06844
C         11.09252        33.44762         0.66870
C          9.85502        34.15091         0.31136
C         11.02604        36.24785         0.64041
C          9.89376        35.60964         0.20677
C         11.25553        38.01225        -0.62675
C         10.04000        38.29942        -1.31090
C         13.66640         3.50581        -0.40844
C         12.32924         3.75109        -0.59891
C         13.46283         6.38519        -1.33179
C         12.21146         5.82163        -1.18996
C         13.65489         7.75853        -0.83058
C         12.43702         8.47126        -0.26265
C         13.63989        10.66987        -0.76304
C         12.46662         9.96956        -0.22540
C         13.50463        12.11841        -1.15452
C         12.30684        12.86196        -0.60845
C         13.61043        15.00279        -0.36417
C         12.31383        14.25723        -0.54323
C         13.54172        16.45333        -0.79883
C         12.29782        17.14978        -0.77849
C         13.52087        19.30266        -0.97041
C         12.26701        18.57609        -0.95971
C         13.60966        20.73933        -0.84339
C         12.56213        21.60819        -1.20914
C         13.52462        23.50666        -0.08018
C         12.37072        22.91440        -0.70633
C         13.52224        24.91140         0.22494
C         12.37694        25.64993        -0.13430
C         13.60232        27.81574         0.57500
C         12.38023        27.12671         0.01768
C         13.44927        29.09686         1.24919
C         12.11775        29.76405         1.40003
C         13.40105        31.94089         1.60820
C         12.16442        31.27777         1.14022
C         13.43921        33.46876         1.54587
C         12.21553        34.13484         1.07472
C         13.57159        36.11909         0.36648
C         12.30366        35.62874         1.09475
C         13.65741        37.26698        -0.45838
C         12.54075        37.94885        -1.10920
C         16.08301         3.59243        -1.11496
C         14.71440         4.09630        -1.26168
C         15.88317         6.33729        -2.10970
C         14.61769         5.58610        -1.76481
C         15.86364         7.87463        -2.05577
C         14.76938         8.56172        -1.35723
C         15.99824        10.72804        -1.51750
C         14.77889         9.97021        -1.21989
C         16.00893        12.15981        -1.33228
C         14.80527        12.86587        -1.07743
C         16.03323        14.95611        -0.93467
C         14.81682        14.25567        -0.89038
C         16.02229        16.40341        -0.52103
C         14.74962        17.15313        -0.86232
C         15.97797        19.27637        -0.59718
C         14.75269        18.58342        -0.84940
C         15.99641        20.62509        -0.20147
C         14.76272        21.36600        -0.27834
C         15.86849        23.29415         0.79911
C         14.70075        22.72679         0.09527
C         15.85273        24.77602         1.15634
C         14.68248        25.57544         0.76061
C         15.92784        27.59470         1.43683
C         14.74915        26.95907         0.93908
C         15.92498        28.99025         1.71735
C         14.61199        29.71655         1.94450
C         15.89430        31.94876         2.03529
C         14.71171        31.22170         1.40644
C         15.95014        33.51395         1.95175
C         14.71891        34.14163         1.34645
C         16.06503        35.98833         0.42158
C         14.77865        35.40979         0.71254
C         16.11960        37.18599        -0.31933
C         14.94583        37.74599        -0.81616
C         18.49550         3.63262        -1.33421
C         17.21669         4.28847        -1.49163
C         18.39809         6.38231        -2.02499
C         17.19544         5.66938        -1.95667
C         18.45149         7.84348        -2.27931
C         17.14627         8.63348        -2.21645
C         18.44193        10.75289        -1.86235
C         17.18502        10.06184        -1.83357
C         18.46726        12.16648        -1.64145
C         17.24062        12.87086        -1.40862
C         18.50227        14.99459        -1.16207
C         17.24964        14.28420        -1.19665
C         18.50855        16.41954        -0.94010
C         17.28642        17.11601        -0.86375
C         18.41955        19.06583         0.05081
C         17.29994        18.61706        -0.90342
C         18.44503        20.56272         0.27828
C         17.21568        21.28909         0.18965
C         18.35193        23.31032         1.03927
C         17.18509        22.64195         0.65383
C         18.33784        24.69578         1.43842
C         17.13755        25.45082         1.37129
C         18.36956        27.52821         1.86895
C         17.15016        26.85523         1.55043
C         18.37932        28.95077         1.99091
C         17.13246        29.65832         1.90771
C         18.44008        31.78120         1.78609
C         17.14450        31.13047         2.13719
C         18.46982        33.22723         1.40167
C         17.23396        34.04015         1.35769
C         18.59006        35.89932         0.47963
C         17.28940        35.28137         0.76325
C         18.64833        37.17357        -0.12330
C         17.41722        37.87958        -0.63005
C         19.66251         4.31367        -1.48281
C         20.84054         6.45780        -1.66741
C         19.65076         5.72699        -1.74715
C         20.85841         7.86283        -1.74852
C         19.70027         8.58483        -2.00788
C         20.87639        10.77228        -2.03702
C         19.67180        10.03508        -2.00443
C         20.89305        12.14825        -1.86979
C         19.70603        12.87201        -1.63078
C         20.93348        15.03077        -1.29265
C         19.72421        14.30294        -1.36356
C         20.94586        16.39739        -0.99885
C         19.76181        17.10733        -0.81256
C         20.85484        19.03745         0.49294
C         19.79361        18.58618        -0.48385
C         20.77427        20.30092         0.97828
C         19.61910        21.14634         0.72561
C         20.74471        23.21371         1.73558
C         19.69882        22.65536         0.80896
C         20.68863        24.50594         2.13716
C         19.54030        25.34526         1.86269
C         20.74570        27.46666         2.43099
C         19.56150        26.75949         2.06971
C         20.76631        28.84571         2.51325
C         19.61265        29.63406         2.26439
C         20.86178        31.81552         2.14448
C         19.68912        31.07573         2.14673
C         20.89582        33.19528         1.79287
C         19.77476        33.91573         1.41729
C         21.02061        35.97778         0.77142
C         19.80212        35.28197         0.91653
C         21.05856        37.24093         0.19069
C         19.87762        37.83144        -0.26567
O          4.83852         8.95197        -0.81536
O          4.00899        28.52595        -2.37370
O         16.38791        31.51570         3.32760
O         13.30803        27.80796        -0.90166
O         17.78684         8.34232        -3.49069
O          6.39010         7.43307         2.26732
O         11.05250        37.63808         0.72957
O          2.82195        22.99737        -1.75541
O         14.35903         4.46352        -2.63156
O         13.82485        15.07848         1.06416
O         15.57465         7.14129        -3.29659
O          1.54700        27.32883        -2.35218
O         13.44477         7.88322         0.63140
O          1.21743        24.37718         1.07269
O         18.41000        32.14858         0.34632
O          9.25975        25.53581        -2.00283
O         12.00319        10.48687         1.08316
O         13.31092        32.71002         2.82427
O          7.92015        27.11958         0.96048
O         11.66194        21.14401        -2.17140
O         11.97427         4.54131        -1.72564
O          6.90901        19.00764         1.60388
O          4.39713        30.35754         0.88938
O         15.56310        23.73484         2.16163
O          8.78353         6.07902         1.88590
O          7.20913        34.60637         1.75128
H          6.87647        33.77787         2.17412
O         13.18217        12.03893        -2.60914
H         13.97738        11.69155        -3.06927
O          4.12054         2.27383         2.36095
H          4.36208         2.63917         3.23660
O         12.49812        36.03968         2.48488
H         12.28939        36.99845         2.52601
O          9.25445        30.05688         2.03198
H          8.81573        29.22139         2.30495
O         16.06257        16.41631         0.95314
H         15.21517        15.89931         1.23989
O         11.76777        29.69717         2.84028
H         10.83625        30.03636         2.91269
O          7.06629        14.17824        -1.84138
H          6.24419        13.65869        -1.97559
O          8.89086        21.01558         1.44891
H          8.23238        20.47148         1.94628
O         15.94987        33.97021         3.34085
H         15.15122        33.58376         3.76729
O          0.72657         5.85326         0.20285
H          0.64923         4.87501         0.20816
O         10.19296        31.12414        -1.33933
H         10.35738        32.01043        -1.72303
O          6.17268        24.92749         1.29422
H          6.76055        25.68025         1.53886
O         18.18592        18.44764         1.33479
H         17.46567        17.77131         1.27291
O         20.11123        19.27749        -1.73721
H         20.21287        20.23343        -1.53029
O         17.50108        38.06120        -2.05334
H         18.42016        38.31253        -2.27810
O          5.97582        32.14771         1.83555
H          5.50096        31.32443         2.10430
O         14.41182        29.78943         3.36534
H         13.44121        29.87116         3.53523
O          9.25535         5.38864        -1.68109
H          9.93073         4.91871        -2.22176
O          7.01087        22.38612        -2.42831
H          6.10917        22.00557        -2.51038
O          2.20328        30.23590        -2.81725
H          2.35210        29.34313        -3.21172
O         14.94347        31.19970        -0.01234
H         15.81484        30.78735        -0.19411
O         20.11450        23.05729        -0.56440
H         20.19917        24.03533        -0.55911
O          1.15573        37.00726         0.37438
H          1.08562        36.18884         0.91042
O         17.55763        19.02105        -2.27679
H         18.53834        19.01873        -2.42966
H          1.68948         2.52111         2.77629
H         -0.21904         3.91811         3.62310
H         -0.50300         6.24532         2.87565
H         -0.76247         7.96389         1.86183
H         -0.79117        10.39701         1.69879
H         -0.84227        12.26035         1.47334
H         -0.88306        14.67612         1.31128
H         -0.93679        16.54247         0.98230
H         -0.98899        18.93923         0.62858
H         -1.04938        20.75388         0.07688
H         -1.16615        23.16928        -0.06919
H         -1.10072        25.30114        -0.06308
H         -1.11837        27.66274        -0.56440
H         -1.00363        29.62345        -0.60475
H         -0.96937        32.05024        -0.82799
H         -0.85156        33.93700        -1.52112
H         -0.77357        36.37234        -1.67320
H          0.61310        38.39704        -2.13118
H          3.68374         2.90659         0.45844
H          2.84108        39.35944        -2.56746
H          6.37496         2.40053         1.21656
H          5.27753        39.32230        -2.20184
H          8.87066         2.41376         0.87088
H          7.71501        39.21990        -1.98023
H         11.22217         2.47046         0.78976
H         10.03320        39.04228        -2.12328
H         13.99438         2.93141         0.46943
H         12.74792        38.37465        -2.10260
H         16.21269         2.60133        -0.65336
H         15.01520        38.63155        -1.46355
H         18.50031         2.56619        -1.06657
H         17.38663        38.90674        -0.14400
H         20.63009         3.81181        -1.33900
H         21.77747         5.92337        -1.45523
H         21.80948         8.38221        -1.56924
H         21.82978        10.25231        -2.20028
H         21.86059        12.66590        -1.90560
H         21.89482        14.52416        -1.44908
H         21.91066        16.91789        -0.91964
H         21.73138        18.40781         0.70381
H         21.59490        20.69357         1.59598
H         21.63059        22.61228         1.98203
H         21.51863        24.92067         2.72738
H         21.67604        26.91299         2.61679
H         21.71313        29.34449         2.76340
H         21.82002        31.32863         2.37447
H         21.88192        33.68099         1.78671
H         21.95870        35.51919         1.11148
H         22.01526        37.77031         0.08467
H         19.90742        38.83059        -0.72626
