         344
 CSIRO Nanostructure Databank - Neutral Graphene Oxide Data Set
C          1.16038         3.45317        -0.09244
C         -0.04326         4.14218        -0.05240
C          1.13234         6.28757        -0.12443
C         -0.06213         5.54197        -0.06010
C          1.13417         7.73995        -0.13989
C         -0.06008         8.47964         0.00861
C          1.14318        10.58055        -0.26759
C         -0.05242         9.86099        -0.02121
C          1.14485        12.04325        -0.30668
C         -0.03644        12.77967        -0.20691
C          1.16948        14.89882        -0.14802
C         -0.02669        14.17855        -0.12296
C          1.18423        16.35652        -0.01667
C          0.00175        17.07102         0.42317
C          1.08997        19.26329         0.09958
C         -0.03036        18.42149         0.54374
C          1.19273        20.68000         0.52147
C          0.02575        21.37525         0.87218
C          1.28446        23.44015         1.08596
C          0.07035        22.73588         1.13689
C          1.25956        24.90940         1.32844
C          0.03568        25.69459         1.14106
C          1.29002        27.79113         0.93657
C          0.06943        27.06350         1.09462
C          1.29644        29.23818         0.82473
C          3.62291         3.47290        -0.14738
C          2.38747         4.16315        -0.14933
C          3.61040         6.31949        -0.25491
C          2.37533         5.59538        -0.18444
C          3.60886         7.73449        -0.34354
C          2.35727         8.44999        -0.31569
C          3.59284        10.58028        -0.87095
C          2.34225         9.86622        -0.42403
C          3.61823        12.05100        -0.53539
C          2.39217        12.74830        -0.38900
C          3.62712        14.86895        -0.48268
C          2.39747        14.17788        -0.32379
C          3.59089        16.33472        -0.58779
C          2.35899        17.05269        -0.22329
C          3.65227        19.25458        -0.03113
C          2.38648        18.52801        -0.26106
C          3.66723        20.59297         0.26997
C          2.44165        21.35396         0.50552
C          3.77858        23.46156         0.75688
C          2.49080        22.74881         0.81166
C          3.79209        24.91299         0.78651
C          2.57702        25.66749         1.13412
C          3.67079        27.75691         0.32973
C          2.50664        27.09415         0.78545
C          3.56906        29.17203        -0.18767
C          2.38887        29.90900         0.39172
C          6.07950         3.46898        -0.05962
C          4.84050         4.16900        -0.15424
C          6.08779         6.29760        -0.22503
C          4.85147         5.60359        -0.22071
C          6.09773         7.74367        -0.28203
C          4.85403         8.45685        -0.36604
C          6.07963        10.58761        -0.44899
C          4.86430         9.86455        -0.49115
C          6.09852        12.02111        -0.55174
C          4.84806        12.74499        -0.55376
C          6.11684        14.89322        -0.59138
C          4.85279        14.17932        -0.54679
C          6.15116        16.30881        -0.52803
C          4.89684        17.08367        -0.57447
C          6.09239        19.24730        -0.61616
C          4.94744        18.46896         0.04404
C          6.19136        20.65127        -0.07942
C          4.98768        21.25446         0.61183
C          6.25647        23.44706         0.50738
C          4.95351        22.75906         0.53969
C          6.24128        24.97476         0.47431
C          4.93783        25.64469         0.49533
C          6.10246        27.76865        -0.07435
C          4.89588        27.06712         0.25752
C          6.07103        29.23222        -0.12620
C          4.87371        29.90537        -0.08075
C          8.54571         3.33773         0.18913
C          7.28264         4.14465        -0.00683
C          8.56793         6.25796        -0.11579
C          7.30944         5.57035        -0.11050
C          8.61993         7.72804        -0.46003
C          7.31114         8.45619        -0.26927
C          8.53994        10.60969        -0.21753
C          7.31558         9.87527        -0.29197
C          8.57923        11.98858        -0.43651
C          7.33613        12.72539        -0.58739
C          8.59446        14.89128        -0.75403
C          7.32883        14.14861        -0.65034
C          8.61260        16.34995        -0.55999
C          7.38366        17.05278        -0.50143
C          8.60288        19.19559        -0.63988
C          7.39062        18.47862        -0.52612
C          8.58179        20.62315        -0.61620
C          7.39404        21.33602        -0.22502
C          8.61188        23.51283        -0.30826
C          7.46274        22.77419        -0.02038
C          8.60744        24.96639        -0.30804
C          7.40409        25.68539        -0.06628
C          8.50689        27.83042        -0.79432
C          7.30982        27.08015        -0.26886
C          8.53463        29.27552        -0.35364
C          7.32713        29.93481        -0.13891
C         11.02679         3.45742        -0.01008
C          9.82318         4.13307         0.07010
C         11.05937         6.32375        -0.14973
C          9.76316         5.56904         0.02480
C         10.98463         7.77304         0.27918
C          9.80372         8.43210         0.15399
C         11.02114        10.48137        -0.49573
C          9.80948         9.94121         0.26776
C         11.07373        11.99458        -0.38151
C          9.87036        12.67235        -0.42631
C         11.11354        14.87706        -0.14856
C          9.89757        14.13605        -0.65431
C         11.09636        16.34314        -0.52723
C          9.85222        17.04952        -0.57402
C         11.09694        19.16590        -0.66042
C          9.85792        18.47696        -0.65983
C         11.14159        20.62049        -0.89094
C          9.80484        21.37858        -0.86937
C         11.06963        23.49104        -0.68300
C          9.85414        22.82815        -0.62271
C         11.07614        24.97151        -0.94124
C          9.80325        25.68182        -0.56390
C         11.02073        27.80880        -0.51261
C          9.80827        27.09430        -0.57343
C         11.00996        29.25274        -0.40229
C          9.77131        29.94507        -0.31132
C         13.50726         3.48212         0.16069
C         12.28943         4.12946         0.11211
C         13.50617         6.30901         0.75419
C         12.23214         5.57100         0.42847
C         13.49734         7.84048         0.90269
C         12.25553         8.51204         0.36322
C         13.57569        10.44099        -0.53297
C         12.29415         9.80421        -0.05396
C         13.54884        11.95681        -0.52583
C         12.36980        12.67033        -0.46434
C         13.55561        14.83498        -0.67305
C         12.39790        14.14426        -0.49504
C         13.60436        16.34594        -0.86902
C         12.29490        17.04413        -0.56202
C         13.56716        19.19119        -0.35262
C         12.31253        18.46701        -0.56956
C         13.55206        20.65699        -0.28957
C         12.36761        21.36646        -0.57221
C         13.53568        23.52446        -0.35901
C         12.33701        22.79633        -0.58797
C         13.52871        24.97412        -0.30482
C         12.31385        25.69003        -0.47792
C         13.48118        27.82772        -0.20506
C         12.27424        27.09917        -0.39973
C         13.46570        29.26274        -0.19219
C         12.22507        29.94642        -0.28464
C         16.00822         3.45147        -0.04448
C         14.73720         4.21968         0.25035
C         16.00303         6.37722         0.14672
C         14.76008         5.57926         0.47681
C         16.02634         7.73888         0.86563
C         14.78654         8.51570         0.50201
C         16.08496        10.54987         0.08369
C         14.82292         9.81555         0.08344
C         16.02049        12.07193         0.00216
C         14.87698        12.60355        -0.90407
C         16.11416        14.91757        -0.55466
C         14.85163        14.13949        -0.87883
C         16.04518        16.34038        -0.16847
C         14.70415        16.97961         0.03218
C         15.93884        19.18167         0.44673
C         14.71888        18.48854        -0.08836
C         15.96762        20.66645         0.21109
C         14.75233        21.37454        -0.00951
C         15.94348        23.53644         0.18988
C         14.75889        22.82438        -0.07050
C         15.97346        24.97524         0.16622
C         14.72656        25.68745        -0.04979
C         15.89864        27.86017         0.15273
C         14.70822        27.12325        -0.02673
C         15.90187        29.27491         0.05766
C         14.68481        29.96528        -0.08835
C         18.47082         3.48518         0.47801
C         17.27044         4.20216         0.30973
C         18.48220         6.30008         0.64842
C         17.27408         5.59834         0.41295
C         18.49828         7.75688         0.67046
C         17.31776         8.46605         0.57011
C         18.57870        10.60106         0.22715
C         17.27476         9.89340         0.35429
C         18.53036        12.09094         0.47920
C         17.40101        12.69365        -0.37665
C         18.51930        14.91961        -0.04304
C         17.37587        14.20457        -0.25813
C         18.50299        16.37251        -0.09903
C         17.23543        17.06522        -0.04829
C         18.43570        19.20818         0.08592
C         17.23529        18.48677         0.12178
C         18.42955        20.64849         0.23050
C         17.18773        21.34302         0.32567
C         18.45759        23.51968         0.39327
C         17.16810        22.80340         0.67698
C         18.46401        24.99614         0.69050
C         17.15895        25.68236         0.37447
C         18.34134        27.80565        -0.27465
C         17.18458        27.17785         0.52935
C         18.36185        29.31106        -0.07736
C         17.16267        29.98024         0.06537
C         19.67168         4.16334         0.65361
C         20.96671         6.28154         0.69162
C         19.69808         5.56988         0.70795
C         21.02625         7.62712         0.71959
C         19.80160         8.45670         1.00140
C         21.04174        10.70344         0.81062
C         19.87512         9.87756         0.47201
C         21.02208        12.08151         0.61891
C         19.85482        12.78865         0.31225
C         21.00184        15.00794        -0.17677
C         19.82011        14.29284         0.42356
C         20.93940        16.33559        -0.39039
C         19.70271        17.08336        -0.17508
C         20.87621        19.27197        -0.13370
C         19.68835        18.51870        -0.10572
C         20.85675        20.65778        -0.01445
C         19.65486        21.36981         0.15551
C         20.86809        23.58295         0.06949
C         19.64361        22.83393         0.22422
C         20.87473        24.95694         0.02325
C         19.68953        25.72549         0.17447
C         20.84230        27.89254        -0.16951
C         19.67252        27.12208        -0.02639
C         20.79958        29.29660        -0.25817
C         19.60416        29.99779        -0.17258
O          6.53233        24.23672         1.72142
O         12.62714         5.77263         1.82299
O          9.41919        14.51616        -1.95835
O         15.63940        14.69530        -1.96982
O         10.48137        21.01474        -2.12982
O         13.82174        16.62330        -2.21131
O          4.18151        16.91076        -1.82451
O         19.37854        10.12159        -0.89135
O          2.06328        25.34063         2.47311
O          1.50453        19.08163        -1.29080
O         18.18887        12.25796         1.90487
H         18.81162        11.70010         2.42133
O         19.76842         8.64889         2.46371
H         19.58218         7.77544         2.87036
O         15.80215        19.03166         1.93872
H         15.16815        19.72106         2.23544
O         16.04220         7.48367         2.29737
H         15.14774         7.72474         2.65419
O          5.19902        20.95238         2.05855
H          5.87598        21.58017         2.39532
O         10.82574        10.14821        -1.90173
H         11.72919        10.11560        -2.30962
O         11.12649        25.06399        -2.42294
H         10.97421        26.00386        -2.66075
O         17.04458        22.81509         2.18681
H         17.63999        22.10772         2.51997
O          5.73631        19.36462        -2.02773
H          6.50484        19.74315        -2.50431
O         18.58311        25.07053         2.18305
H         17.94901        24.38370         2.52396
O         11.00343        14.83800         1.30952
H         11.83344        15.20558         1.68297
O         17.40850        27.47909         1.93793
H         17.95223        26.73771         2.31388
O          5.26258        18.24762         1.43876
H          5.29472        19.13119         1.88873
O          8.91447         7.79216        -1.91525
H          9.30586         8.68363        -2.09293
O          8.33998        27.87083        -2.25919
H          8.97489        28.53186        -2.60786
O         14.29542        16.68367         1.40919
H         14.86922        17.24488         1.98746
O         15.95396         6.67079        -1.27823
H         16.01351         5.82670        -1.77185
O         15.63059        12.55479         1.30883
H         16.35858        12.34099         1.94041
O         19.86840        14.55545         1.87431
H         19.12015        14.04930         2.26889
O          3.54660        10.52665        -2.35004
H          4.33712        11.00215        -2.68445
O         13.43209         8.09652         2.35586
H         12.83844         7.39584         2.72233
O          9.98421        10.31723         1.65733
H          9.20973         9.99544         2.16284
O         17.75064        12.35544        -1.72648
H         16.95817        12.49124        -2.29824
O         15.97603         2.17368         0.60308
H         15.91341         2.32440         1.56836
O         11.31668         6.35936        -1.58814
H         10.52667         6.79657        -2.00025
O          3.28288        29.05747        -1.63802
H          2.41126        28.61579        -1.72441
O         13.60365        10.05045        -1.95903
H         14.29540        10.61404        -2.39194
O          8.56368         2.21011        -0.69862
H          8.59488         2.54752        -1.61726
O         18.03353        27.56524        -1.67928
H         18.73834        27.98535        -2.21538
O         15.14237        12.21258        -2.28711
H         14.87439        12.96322        -2.86451
H          1.17541         2.35415        -0.07452
H         -0.99192         3.58911        -0.00891
H         -1.03367         6.05220        -0.02472
H         -1.01507         7.96243         0.16957
H         -1.00045        10.39424         0.12650
H         -1.00874        12.27086        -0.17671
H         -0.98836        14.70110        -0.03657
H         -0.86997        16.49246         0.75849
H         -0.90151        18.89518         1.01799
H         -0.94217        20.85814         0.89869
H         -0.86172        23.25919         1.38588
H         -0.93044        25.18114         1.03876
H         -0.87569        27.62473         1.04433
H          0.39282        29.78440         1.13569
H          3.62728         2.37372        -0.10495
H          2.37716        31.00705         0.32267
H          6.07212         2.37064        -0.00572
H          4.86281        31.00595        -0.09800
H          8.51108         2.90671         1.23062
H          7.32468        31.02267         0.03019
H         11.01563         2.35920        -0.07941
H          9.78748        31.02547        -0.10107
H         13.56547         2.39472         0.00588
H         12.21373        31.04446        -0.21848
H         16.03467         3.23669        -1.15163
H         14.68221        31.06444        -0.13051
H         18.44928         2.38764         0.42752
H         17.15128        31.08049         0.10713
H         20.61612         3.60407         0.72057
H         21.88522         5.68635         0.57377
H         21.99805         8.13837         0.65513
H         21.95256        10.21981         1.19003
H         21.95879        12.64179         0.76239
H         21.93146        14.45334        -0.36924
H         21.82155        16.86717        -0.77513
H         21.84517        18.76905        -0.24953
H         21.81515        21.19032        -0.05860
H         21.81710        23.05370        -0.08114
H         21.82135        25.46459        -0.21041
H         21.82844        27.41037        -0.11613
H         21.74660        29.85021        -0.32787
H         19.61094        31.09737        -0.14437
