         638
 CSIRO Nanostructure Databank - Neutral Graphene Oxide Data Set
C         22.97698        70.00005        -0.39606
C         23.02961        71.40322        -0.35447
C         21.89051        72.19452        -0.64982
C         23.13716        74.24422        -0.26084
C         21.95168        73.58638        -0.59818
C         25.21763        65.63697        -0.33079
C         25.24962        67.00020        -0.14310
C         24.08558        67.81289        -0.26651
C         25.37744        69.87969         0.20344
C         24.12310        69.20918        -0.14591
C         25.39094        71.31942         0.35182
C         24.26264        72.06328         0.03755
C         25.52947        74.17461         0.30717
C         24.30657        73.51828         0.06541
C         27.83576        61.39744         0.38399
C         27.78721        62.81447        -0.13446
C         26.58246        63.46291        -0.15186
C         27.78574        65.63688        -0.64183
C         26.46203        64.86555        -0.54591
C         27.79570        67.05856        -0.29073
C         26.53896        67.63779         0.32613
C         27.82913        69.76446         0.65212
C         26.53369        69.13722         0.32194
C         27.85542        71.22848         1.01312
C         26.54476        72.01347         1.06078
C         27.93400        74.09615         0.75841
C         26.70202        73.46285         0.64751
C         30.41746        57.24282         0.83844
C         30.34861        58.53572         0.33226
C         29.15589        59.30741         0.38984
C         30.26655        61.35822        -0.40354
C         29.11326        60.65670         0.06090
C         30.27512        62.76774        -0.50421
C         29.03588        63.50086        -0.41041
C         30.27714        65.62823        -0.62414
C         29.04753        64.89280        -0.53043
C         30.24614        67.03176        -0.53891
C         29.02059        67.72756        -0.21754
C         30.29097        69.79642         0.35673
C         29.06749        69.10899         0.21302
C         30.32298        71.20520         0.73254
C         29.13797        71.93652         0.88285
C         30.38934        74.03855         1.04985
C         29.16665        73.37916         0.92545
C         32.94219        53.07949         1.63384
C         32.90878        54.45185         1.35893
C         31.68073        55.18707         1.27992
C         32.92299        57.28922         0.64829
C         31.63942        56.51441         0.87549
C         32.81973        58.47145        -0.28175
C         31.50828        59.11551        -0.37920
C         32.70728        61.27802        -1.29986
C         31.44248        60.56483        -0.81626
C         32.80315        62.70556        -0.72102
C         31.49715        63.49025        -0.75947
C         32.76262        65.65707        -1.14194
C         31.50629        64.87658        -0.78044
C         32.75633        67.04870        -0.55987
C         31.49175        67.85216        -0.75211
C         32.74424        69.80538         0.19424
C         31.50443        69.14504         0.02469
C         32.78698        71.17671         0.66083
C         31.58361        71.87776         0.85382
C         32.82740        73.92167         1.42734
C         31.62097        73.30846         1.13200
C         35.46003        48.80454         2.13103
C         35.39662        50.16191         1.88999
C         34.17417        50.92052         1.84627
C         35.41979        53.02691         1.46420
C         34.13907        52.29257         1.61891
C         35.40413        54.47571         1.10866
C         34.11387        55.15063         0.92827
C         35.22492        56.82119        -0.53912
C         34.10041        56.40150         0.38513
C         35.24113        58.32300        -0.85304
C         33.98123        59.11309        -0.73306
C         35.25277        61.22305        -1.06050
C         34.00894        60.50582        -1.05709
C         35.27109        62.66713        -0.99823
C         34.01652        63.45280        -1.33153
C         35.16905        65.50251        -0.43411
C         34.04147        64.89383        -0.85534
C         35.19425        66.93666         0.04162
C         33.93075        67.69954        -0.26220
C         35.20225        69.89849        -0.24349
C         33.94652        69.11160        -0.03243
C         35.24409        71.18431         0.54705
C         34.04911        71.80409         0.90980
C         35.34343        73.85154         1.54647
C         34.05835        73.09697         1.69041
C         37.88976        44.44820         1.88327
C         37.93877        45.95694         1.90474
C         36.73781        46.66283         2.03943
C         37.95016        48.76252         1.98406
C         36.71550        48.07592         2.06282
C         37.94644        50.25706         2.12708
C         36.67999        50.83363         1.53885
C         37.95124        53.04079         1.30252
C         36.68560        52.28184         1.22302
C         37.89633        54.47339         1.05854
C         36.63425        55.11607         0.59709
C         37.83411        56.89214        -0.73314
C         36.58816        56.27830        -0.10298
C         37.83580        58.40573        -0.69570
C         36.54559        59.07845        -0.94753
C         37.72658        61.24935        -0.83455
C         36.49835        60.54560        -0.90849
C         37.70777        62.66925        -0.78193
C         36.45147        63.34481        -0.75187
C         37.67820        65.54436        -0.70400
C         36.46641        64.75649        -0.22566
C         37.61861        66.97842        -0.66987
C         36.45575        67.67775        -0.35025
C         37.68534        69.80351        -0.08330
C         36.47311        69.09460        -0.18384
C         37.70479        71.18563         0.34096
C         36.49747        71.84250         0.69974
C         37.77192        73.90674         1.18122
C         36.52091        73.22360         1.15935
C         40.20429        40.33064         0.31936
C         40.25465        41.72017         0.63883
C         39.08421        42.43625         1.01312
C         40.34561        44.51342         1.20189
C         39.13366        43.79407         1.32561
C         40.40498        45.93282         1.49426
C         39.17053        46.64226         1.82115
C         40.40730        48.81122         1.79143
C         39.17603        48.07116         1.87855
C         40.42229        50.21604         1.65792
C         39.20679        50.94948         1.66679
C         40.42287        53.04311         1.10893
C         39.17676        52.35468         1.42473
C         40.41623        54.32073         0.58875
C         39.21085        55.14108         0.59650
C         40.35155        56.99297        -0.54137
C         39.13363        56.33803        -0.22033
C         40.31413        58.44434        -0.72209
C         39.01419        59.12056        -0.69201
C         40.18560        61.31920        -0.77637
C         38.99241        60.57315        -0.76645
C         40.16324        62.72921        -0.92156
C         38.91838        63.41444        -0.87741
C         40.08913        65.58935        -1.43864
C         38.85482        64.84985        -0.97438
C         40.11488        66.96252        -0.74235
C         38.84715        67.77868        -1.05357
C         40.12626        69.82344        -0.28621
C         38.92013        69.14140        -0.38336
C         40.16888        71.19607         0.14454
C         38.95403        71.86442         0.44939
C         40.21886        73.91954         0.94151
C         38.97590        73.25291         0.85921
C         42.50893        36.04069        -0.57197
C         42.53973        37.40466        -0.37066
C         41.23561        38.16811        -0.37225
C         42.63250        40.24867         0.14106
C         41.35439        39.61118         0.05531
C         42.69665        41.65038         0.36172
C         41.50342        42.39181         0.60482
C         42.76897        44.50202         0.74703
C         41.55768        43.81705         0.84952
C         42.76826        45.99955         0.66152
C         41.59174        46.62908         1.36470
C         42.84455        48.80846         1.18087
C         41.70679        48.04526         1.87708
C         42.89199        50.24393         1.69354
C         41.69997        50.94248         1.59475
C         42.88644        53.06729         1.10319
C         41.69337        52.36226         1.29631
C         42.91766        54.37086         0.51370
C         41.62740        54.84226        -0.13448
C         42.82509        56.99145        -0.67387
C         41.56970        56.32566        -0.35316
C         42.77037        58.49914        -0.92413
C         41.48054        59.17270        -0.76701
C         42.72967        61.37619        -0.95287
C         41.49728        60.64587        -0.44909
C         42.68434        62.75793        -1.12510
C         41.41314        63.46987        -1.07326
C         42.62607        65.59698        -1.26709
C         41.38861        64.84321        -1.22284
C         42.63913        66.96717        -1.06198
C         41.37897        67.73117        -1.06081
C         42.68211        69.84270        -0.43749
C         41.39008        69.18671        -0.73139
C         42.65924        71.21787        -0.04108
C         41.42127        71.87972         0.23355
C         42.66803        73.93483         0.77532
C         41.43353        73.26055         0.64835
C         44.87252        33.15388        -1.00060
C         43.68356        33.87548        -0.89041
C         44.96368        35.93542        -0.53400
C         43.71068        35.27178        -0.66208
C         45.00354        37.34006        -0.28645
C         43.79423        38.08257        -0.20910
C         45.09892        40.12724         0.27486
C         43.84609        39.49077         0.03216
C         45.13568        41.55141         0.47100
C         43.97224        42.30046         0.43343
C         45.29486        44.44876         0.80323
C         44.01932        43.80273         0.29327
C         45.31986        45.86291         1.00555
C         44.09330        46.65282         0.99218
C         45.40961        48.63007         1.71343
C         44.12023        48.00009         1.24200
C         45.43004        50.17182         1.62335
C         44.17118        50.97541         1.80181
C         45.40744        53.16819         1.26583
C         44.13780        52.52144         1.74253
C         45.37932        54.66425         1.08203
C         44.08920        55.11706         0.39759
C         45.27408        57.16298        -0.37482
C         44.09773        56.41826        -0.21022
C         45.25354        58.55773        -0.75756
C         44.02561        59.25754        -0.82405
C         45.20253        61.32745        -1.31632
C         43.98674        60.66142        -0.99839
C         45.12598        62.74127        -1.74547
C         43.88708        63.50288        -1.46064
C         45.07691        65.69229        -1.85989
C         43.87161        64.88754        -1.50663
C         45.04946        67.21126        -1.65981
C         43.93680        67.64305        -0.70966
C         45.13466        69.83644        -0.49585
C         43.88172        69.15324        -0.59736
C         45.12716        71.22023        -0.11655
C         43.89951        71.89411         0.12627
C         45.11789        73.95502         0.70651
C         43.89433        73.28080         0.53606
C         46.10811        33.79198        -0.88926
C         47.42244        35.86179        -0.55185
C         46.18024        35.18560        -0.65189
C         47.49157        37.23959        -0.27746
C         46.26161        37.99994        -0.09016
C         47.61890        39.96369         0.69305
C         46.30343        39.36209         0.23777
C         47.67468        41.47003         0.59521
C         46.40842        42.19623         0.96567
C         47.76189        44.30797         0.86057
C         46.47260        43.69215         0.79554
C         47.84946        45.75152         1.27422
C         46.56801        46.52903         1.13456
C         47.83415        48.61065         0.82535
C         46.62677        47.92944         1.16182
C         47.78942        50.07251         0.54109
C         46.53793        50.85786         0.88212
C         47.88885        53.06733         0.79567
C         46.55723        52.36761         0.84479
C         47.88376        54.55070         0.52276
C         46.59457        55.24367         0.38214
C         47.76950        57.19317        -0.59133
C         46.55400        56.50862        -0.17082
C         47.73197        58.53752        -0.98401
C         46.47599        59.25657        -1.00840
C         47.65757        61.30071        -1.94504
C         46.42521        60.63370        -1.35695
C         47.70749        62.80653        -1.74620
C         46.42977        63.49386        -1.97125
C         47.66592        65.71661        -1.68473
C         46.40677        64.98971        -1.98198
C         47.59377        67.11677        -1.44059
C         46.38357        67.80930        -1.23503
C         47.62268        69.87528        -0.60610
C         46.36688        69.15900        -0.77609
C         47.59523        71.26674        -0.16602
C         46.36648        71.91964         0.05889
C         47.56218        73.97554         0.72119
C         46.34993        73.30036         0.48965
C         48.73059        37.91262        -0.25963
C         50.02963        39.95730         0.06221
C         48.83247        39.28487         0.09653
C         50.17927        41.35420         0.60871
C         48.87529        42.13001         0.56226
C         50.27057        44.24712         0.90976
C         48.92787        43.56950         0.71258
C         50.22877        45.73641         0.60947
C         49.06962        46.46061         0.72545
C         50.23845        48.60129         0.15187
C         49.01067        47.89802         0.56962
C         50.32548        50.07141         0.19410
C         49.05198        50.82054         0.24252
C         50.29000        52.98319        -0.05539
C         49.19249        52.26426         0.68846
C         50.27140        54.34110        -0.28472
C         49.07764        55.16404        -0.09430
C         50.18448        57.04373        -1.33526
C         49.00919        56.44624        -0.59290
C         50.23457        58.55289        -1.24833
C         48.96882        59.26815        -1.27775
C         50.19011        61.36269        -1.95404
C         48.94210        60.61581        -1.56922
C         50.16472        62.84660        -1.62228
C         48.90585        63.53819        -1.66678
C         50.13729        65.71726        -1.46901
C         48.89253        65.00476        -1.62054
C         50.13581        67.13562        -1.33750
C         48.86177        67.91348        -1.56928
C         50.10440        70.05318        -0.95874
C         48.82430        69.26045        -0.89908
C         50.06302        71.32819        -0.16418
C         48.81984        71.96564         0.05533
C         50.01542        73.98775         0.81037
C         48.79969        73.32523         0.53974
C         51.34598        42.07134        -0.07909
C         52.51895        44.21857        -0.25391
C         51.42504        43.56030         0.18701
C         52.54631        45.71671        -0.44425
C         51.58148        46.39659         0.53654
C         52.84213        48.60153         0.30457
C         51.53006        47.85329         0.13984
C         52.75694        50.01840        -0.20716
C         51.49730        50.71886        -0.10728
C         52.76111        52.83123        -0.59003
C         51.42425        52.14556        -0.60815
C         52.77741        54.31176        -0.34378
C         51.49110        55.02099        -0.67399
C         52.72241        57.09384        -1.07896
C         51.48893        56.36277        -0.98842
C         52.70955        58.50576        -1.25767
C         51.44230        59.23273        -1.36282
C         52.63597        61.39402        -1.54724
C         51.45491        60.66935        -1.52622
C         52.64577        62.83872        -1.53754
C         51.38701        63.55139        -1.51559
C         52.62447        65.68966        -1.36815
C         51.38526        64.98976        -1.41256
C         52.61058        67.19762        -1.60156
C         51.33204        67.85799        -1.13678
C         52.53173        69.84271        -0.26613
C         51.34826        69.21578        -0.74172
C         52.49562        71.21351         0.23171
C         51.25936        71.95204         0.21562
C         52.46437        73.93465         1.04789
C         51.24188        73.30842         0.70611
C         53.88992        46.43010        -0.43017
C         55.19311        48.54165        -0.52924
C         53.99048        47.79830        -0.28717
C         55.19548        49.94575        -0.59949
C         53.92168        50.67028        -0.56782
C         55.17576        52.78706        -1.22935
C         53.91186        52.11424        -0.75047
C         55.20223        54.27613        -0.98509
C         54.00558        54.98718        -0.86885
C         55.20037        57.09695        -1.15103
C         53.97275        56.39840        -1.01911
C         55.18411        58.52072        -1.22122
C         53.92433        59.20139        -1.30685
C         55.18928        61.39615        -1.45796
C         53.90872        60.64840        -1.57656
C         55.14015        62.86609        -1.31597
C         53.87338        63.55976        -1.44727
C         55.13544        65.72758        -1.44605
C         53.84241        64.99039        -1.40159
C         55.17107        67.19577        -1.12839
C         53.87332        67.94051        -1.13966
C         54.95006        69.69611         0.29471
C         53.78225        69.17062        -0.32146
C         54.76636        70.89458         1.21640
C         53.63958        71.79819         0.77014
C         54.88599        73.84896         1.42810
C         53.66047        73.20090         1.09850
C         56.41101        50.67845        -0.69599
C         57.64923        52.80978        -0.86669
C         56.45507        52.07877        -0.85346
C         57.68411        54.23658        -1.01952
C         56.43607        54.96579        -1.07622
C         57.66873        57.10652        -1.11783
C         56.43841        56.39028        -1.11064
C         57.65263        58.53298        -1.09960
C         56.41240        59.21867        -1.14340
C         57.65437        61.41665        -1.03025
C         56.36284        60.68248        -0.82849
C         57.60505        62.78831        -0.97548
C         56.35044        63.50356        -1.09085
C         57.62887        65.66658        -0.77452
C         56.40432        64.96434        -1.22562
C         57.52103        67.02171        -0.29554
C         56.31041        67.73842        -0.35119
C         57.34066        69.44451         1.16649
C         56.18105        69.01397         0.26902
C         57.36210        70.92655         1.52914
C         56.05322        71.65826         1.55533
C         57.31105        73.78805         1.81881
C         56.09153        73.14500         1.55341
C         58.88626        54.95809        -1.02943
C         60.11843        57.11326        -1.05032
C         58.91255        56.38573        -1.07563
C         60.13456        58.53667        -1.04167
C         58.89482        59.25732        -1.04639
C         60.12817        61.38398        -1.09450
C         58.91154        60.68729        -1.04891
C         60.12316        62.88483        -1.29067
C         58.88486        63.51558        -0.63596
C         60.12326        65.77008        -0.74910
C         58.82885        64.99888        -0.81383
C         59.98391        66.84153         0.32338
C         58.71863        67.65413         0.20376
C         59.91102        69.78102         0.57546
C         58.67268        68.93491         0.67786
C         59.85586        71.09545         1.29822
C         58.62281        71.70903         1.51221
C         59.77544        73.80059         2.06299
C         58.56617        73.10614         1.83990
C         61.35108        59.26171        -0.99924
C         62.58484        61.40552        -0.85163
C         61.37041        60.67637        -1.00899
C         62.59718        62.81076        -0.63679
C         61.37695        63.56344        -0.77498
C         62.52696        65.58283        -0.00510
C         61.35360        64.91942        -0.48177
C         62.48513        66.95863         0.39825
C         61.23882        67.65758         0.46726
C         62.38779        69.72257         1.07516
C         61.19005        69.00807         0.77164
C         62.33383        71.10649         1.43623
C         61.06998        71.78498         1.54891
C         62.25188        73.81935         2.27851
C         61.02499        73.15063         1.97556
C         63.78123        63.49370        -0.27628
C         64.95549        65.57313         0.41397
C         63.76954        64.87219         0.04454
C         64.93592        66.93881         0.72497
C         63.67919        67.64494         0.72761
C         64.83393        69.74094         1.36781
C         63.62965        69.02916         1.07288
C         64.78227        71.11221         1.66241
C         63.53713        71.79280         1.73539
C         64.69610        73.81464         2.59996
C         63.48149        73.17484         2.17400
C         66.12231        67.65818         1.08286
C         67.27204        69.70692         1.83576
C         66.09533        69.01437         1.39330
C         67.25893        71.06266         2.13950
C         66.06502        71.90275         1.73866
C         67.10513        73.76686         3.06567
C         65.93049        73.19056         2.51701
C         68.38268        71.72073         2.69776
C         68.30561        73.05415         3.11524
O         46.09691        51.55051        -0.33284
O         38.65052        55.32166         1.96676
O         45.08617        50.68840         2.94802
O         35.58915        54.03603         2.51455
O         45.66104        62.93507        -3.10913
O         27.89852        70.20781         2.09115
O         50.84669        48.07460        -1.10867
O         41.29257        68.71226        -2.15612
O         42.83634        57.54173        -2.04123
O         48.18369        50.43072        -0.84410
O         55.98924        65.39180        -2.58884
O         45.67481        65.44269        -3.17860
O         56.64851        71.15820         2.80514
O         27.03352        65.23372        -1.85431
O         48.03208        54.00795         1.90596
O         31.10653        59.49381        -1.76445
O         54.82721        68.07273        -2.25951
O         36.69049        51.26973         0.14453
O         35.85885        58.53259        -2.18055
O         54.76441        60.95232        -2.77195
O         47.70291        39.67015         2.15006
H         47.60656        38.69793         2.25137
O         47.54710        61.09925        -3.40768
H         46.77675        61.65676        -3.69912
O         43.99325        52.96067         3.15275
H         44.59723        52.38519         3.67986
O         40.14025        66.70283         0.68431
H         39.73593        67.46604         1.14921
O         52.88289        54.43583         1.13105
H         53.71146        53.98792         1.40658
O         42.56115        46.29574        -0.81608
H         41.67531        45.93969        -1.05076
O         40.24902        37.48262         0.41377
H         40.55740        37.46625         1.34269
O         33.09809        62.50465         0.68861
H         33.39345        63.35774         1.07071
O         50.53429        41.22476         2.01427
H         49.75881        40.83319         2.47353
O         35.11783        70.33050        -1.66570
H         35.94759        70.81369        -1.87037
O         45.46641        48.27643         3.12957
H         44.81446        48.84449         3.59950
O         38.74871        68.03688        -2.48275
H         39.57748        68.52426        -2.73319
O         51.09202        52.01644        -2.03912
H         51.74519        51.40637        -2.44450
O         32.69965        65.84055        -2.58621
H         32.07463        66.58699        -2.76249
O         35.24970        66.89197         1.52325
H         34.36390        66.62150         1.84650
O         60.30772        66.43738        -2.02307
H         60.22261        65.75781        -2.72642
O         66.34349        72.32773         0.35396
H         66.44837        71.51392        -0.18361
O         36.63818        64.58742         1.22171
H         36.41974        65.45923         1.63639
O         41.59218        54.22717        -1.47145
H         42.22560        54.71300        -2.04242
O         54.29211        70.29496         2.46956
H         54.37572        70.97499         3.17167
O         53.13102        48.72701         1.72960
H         53.38469        47.83205         2.05208
O         42.08224        47.97835         3.29343
H         41.44365        47.38610         3.74361
O         26.14183        72.07718         2.46238
H         26.46586        71.24399         2.87840
O         59.04143        63.34833         0.81485
H         59.32626        64.21284         1.20448
O         46.32278        42.03881         2.43862
H         46.68493        41.14462         2.65692
O         45.33077        55.28297         2.41525
H         44.74690        54.70162         2.96519
O         31.45956        68.25719        -2.18909
H         32.22410        68.85876        -2.32994
O         26.69597        60.64909        -0.05360
H         26.73997        60.56896        -1.02848
O         42.50969        48.96758        -0.22374
H         42.55077        48.07517        -0.65600
O         52.00096        45.91333        -1.77634
H         52.54604        45.40090        -2.40817
O         33.96793        63.53981        -2.76401
H         33.59417        62.70424        -3.13031
O         37.83255        50.54562         3.56715
H         38.64210        50.20687         4.00446
O         33.21919        57.91611         1.96464
H         33.29515        57.19055         2.62210
O         48.09681        45.70811         2.72666
H         48.84622        45.07878         2.87097
O         49.92474        56.75539        -2.75230
H         50.59350        57.23615        -3.28485
O         48.92361        68.21874        -3.03463
H         48.03817        68.55444        -3.29648
O         55.09721        52.66145        -2.69751
H         55.93320        53.01887        -3.06590
O         44.33005        67.14426         0.60883
H         43.62419        67.37514         1.24852
O         49.69358        52.10670         2.05268
H         49.56769        52.97769         2.49930
O         59.92891        70.18328        -0.85024
H         60.05651        69.37045        -1.38723
O         50.23671        70.49838        -2.35836
H         50.06613        69.70036        -2.92169
O         41.60798        60.70237         1.02510
H         41.47445        61.63660         1.29376
O         59.81371        66.08134         1.56923
H         59.49820        66.69951         2.26359
O         37.79299        56.53046        -2.15784
H         37.21184        57.19325        -2.60308
O         33.97058        72.70293         3.12865
H         33.11855        72.22786         3.23843
O         50.53396        44.13382         2.35210
H         51.44395        44.48301         2.49915
O         56.09236        60.75868         0.62113
H         56.92616        60.54834         1.09344
O         34.87690        56.14581        -1.78483
H         35.27720        56.66155        -2.52088
O         52.53829        67.33074        -3.04954
H         53.46421        67.46946        -3.36622
O         50.24484        61.31928        -3.43115
H         49.30585        61.32424        -3.75450
O         60.02273        63.15492        -2.72063
H         60.71857        62.63559        -3.17559
O         52.17189        46.26193         1.86741
H         51.55821        46.68340         2.50768
O         40.00590        65.75746        -2.87168
H         39.30475        66.43267        -3.05830
O         26.64632        67.24884         1.74982
H         27.22945        67.90505         2.19228
O         36.71935        43.98712         1.19606
H         36.77236        44.28769         0.26595
O         44.09164        44.01637        -1.17115
H         43.76728        44.93446        -1.34664
O         32.54773        61.36327        -2.74047
H         32.15243        60.50540        -3.02707
O         51.22490        41.92438        -1.50329
H         50.90461        41.01768        -1.69558
O         44.75120        67.81487        -2.93706
H         45.13284        67.22416        -3.62792
O         57.11559        68.69798         2.40744
H         56.49708        69.25352         2.94328
H         23.16830        75.34325        -0.24590
H         25.58955        75.26443         0.16139
H         27.98600        75.18795         0.62361
H         30.41097        75.13491         1.13510
H         32.85528        75.00182         1.63612
H         35.37281        74.90067         1.87798
H         37.80039        74.95934         1.49985
H         40.24441        74.97234         1.25945
H         42.67446        74.98967         1.08739
H         45.11652        75.00632         1.03010
H         47.54300        75.01850         1.06989
H         49.99840        75.03315         1.15168
H         52.46787        74.99699         1.33263
H         54.88673        74.94168         1.55457
H         57.31122        74.88208         1.93910
H         59.74107        74.87001         2.31898
H         62.21587        74.86306         2.62531
H         64.62385        74.80755         3.07137
H         67.04829        74.76969         3.51462
H         22.02977        69.50271        -0.65350
H         20.95045        71.69545        -0.92595
H         21.05559        74.17659        -0.83668
H         24.25775        65.13030        -0.52006
H         23.14124        67.33108        -0.56341
H         27.75607        61.45185         1.50826
H         25.68598        62.93549         0.20800
H         29.50447        56.77162         1.23431
H         28.24870        58.84314         0.80470
H         31.98966        52.56579         1.83777
H         30.73669        54.66717         1.50531
H         34.53805        48.23368         2.31957
H         33.22856        50.38517         2.02562
H         37.77864        44.09516         2.94894
H         35.79415        46.10037         2.08992
H         39.23030        39.82058         0.29094
H         38.12516        41.90372         1.08911
H         41.53874        35.53320        -0.67778
H         40.84159        38.16339        -1.42844
H         44.83557        32.07032        -1.18157
H         42.71548        33.36324        -0.98523
H         47.03828        33.21345        -0.98385
H         48.35558        35.29603        -0.69224
H         49.64319        37.36654        -0.54170
H         50.94181        39.41135        -0.23000
H         52.30371        41.57755         0.26209
H         53.31404        43.63688        -0.75191
H         54.77505        45.86665        -0.77124
H         56.12823        47.99507        -0.72896
H         57.36030        50.12790        -0.59954
H         58.60202        52.28044        -0.70965
H         59.84102        54.41430        -0.96936
H         61.07537        56.57069        -1.02611
H         62.30208        58.71175        -0.94037
H         63.52910        60.84744        -0.76480
H         64.72655        62.93403        -0.21431
H         65.90989        65.02611         0.44203
H         67.07905        67.11559         1.12043
H         68.19144        69.12391         2.00272
H         69.31034        71.15159         2.85943
H         69.19245        73.52751         3.56011
