         420
 CSIRO Nanostructure Databank - Neutral Graphene Oxide Data Set
C         28.55881        27.36901        -2.23423
C         28.49431        28.81064        -2.20362
C         27.46655        29.52869        -2.79349
C         28.50193        31.68952        -2.23443
C         27.43278        30.94191        -2.74056
C         28.46999        33.14204        -2.13475
C         27.21858        33.80711        -2.10261
C         28.27842        35.95195        -1.69791
C         27.11426        35.15457        -1.81030
C         28.23156        37.37900        -1.42384
C         27.00385        38.06243        -1.24788
C         28.14668        40.20330        -0.98941
C         26.96118        39.42884        -1.03069
C         28.10597        41.67543        -0.91278
C         26.90353        42.39589        -1.13830
C         28.06835        44.50915        -0.82172
C         26.88372        43.77715        -1.07553
C         28.06057        45.93526        -0.74127
C         30.85823        27.29774        -1.26881
C         29.63656        26.66119        -1.80456
C         30.83084        28.79831        -1.11721
C         29.57221        29.55900        -1.53696
C         30.83594        31.71003        -1.42356
C         29.66850        31.01160        -1.75455
C         30.89669        33.15865        -1.60847
C         29.67268        33.87991        -1.95744
C         30.65737        36.19681        -2.03744
C         29.53917        35.32130        -1.90912
C         30.70350        37.50505        -1.57400
C         29.43686        38.13953        -1.30168
C         30.65436        40.36088        -1.16327
C         29.38090        39.54032        -1.08886
C         30.52059        41.60685        -0.28836
C         29.28683        42.38829        -0.65797
C         30.51389        44.54583        -0.43317
C         29.29895        43.80986        -0.63157
C         30.48085        45.96893        -0.35678
C         29.21314        46.63218        -0.49192
C         33.58865        24.60718        -1.65791
C         32.38213        25.20974        -1.80963
C         33.45151        27.39239        -1.24973
C         32.18480        26.58289        -1.28968
C         33.38060        28.87827        -1.13623
C         32.07097        29.58315        -1.10277
C         33.35887        31.71900        -1.01756
C         32.04553        30.95957        -1.12815
C         33.06880        33.04385        -0.32115
C         32.09277        33.79018        -1.21034
C         33.28348        35.91569        -0.77708
C         32.42793        35.11931        -1.53947
C         33.26040        37.38960        -0.87800
C         31.99180        38.18476        -1.29088
C         33.02268        40.26265        -0.34309
C         31.90559        39.58505        -0.81722
C         32.99909        41.71568        -0.20128
C         31.79246        42.41625        -0.29341
C         32.98836        44.54240        -0.16053
C         31.77172        43.83689        -0.28354
C         33.01672        46.03676        -0.36307
C         31.68327        46.70526        -0.12650
C         32.78444        48.74507         0.66044
C         31.67008        48.08727         0.19981
C         36.01712        23.14273        -0.87505
C         35.89374        24.54075        -0.62402
C         34.71567        25.25942        -1.01616
C         35.74860        27.34272        -0.22379
C         34.66896        26.65570        -0.79746
C         35.76109        28.81909        -0.26002
C         34.54856        29.59247        -0.57604
C         35.56093        31.67758         0.27799
C         34.48493        30.94624        -0.36530
C         35.48979        33.11449         0.39845
C         34.32192        33.82730         0.00277
C         35.46622        35.97835         0.40242
C         34.30595        35.23203        -0.01932
C         35.46090        37.38729         0.36990
C         34.13892        38.08088         0.16193
C         35.42201        40.25806         0.25531
C         34.24244        39.56702        -0.03182
C         35.43721        41.70175         0.21398
C         34.22170        42.41932         0.00633
C         35.44584        44.55957         0.20295
C         34.20800        43.84661         0.02680
C         35.40413        46.00462         0.41144
C         34.17628        46.67425         0.36632
C         35.38917        48.82211         1.19103
C         34.03477        48.02083         0.88897
C         35.40991        50.28405         1.13546
C         38.14311        23.05085         0.31273
C         37.10604        22.43048        -0.43697
C         38.05505        24.45297         0.56223
C         36.94379        25.20717         0.07214
C         37.85145        27.28737         1.11112
C         36.88332        26.63448         0.30740
C         37.77998        28.74689         1.32551
C         36.85362        29.54872         0.47184
C         37.83321        31.69497         1.24679
C         36.69422        30.99337         0.75209
C         37.83630        33.13129         1.18989
C         36.64683        33.83495         0.80787
C         37.82711        35.99254         1.07922
C         36.64686        35.26557         0.78133
C         37.83703        37.42112         1.01026
C         36.63234        38.12629         0.66328
C         37.84777        40.27998         0.79877
C         36.64094        39.55563         0.58350
C         37.87363        41.70263         0.68316
C         36.64599        42.40883         0.40877
C         37.92988        44.53825         0.33290
C         36.63628        43.83461         0.34606
C         37.90798        46.04913         0.42966
C         36.62065        46.72990         0.65076
C         37.86536        48.85295         0.88006
C         36.63668        48.11013         0.89712
C         37.85472        50.28045         0.91432
C         36.57537        50.95807         0.96370
C         40.57812        20.24688         0.91996
C         39.45043        20.90616         0.48427
C         40.24310        22.92153         1.60723
C         39.27294        22.28237         0.78455
C         39.90217        24.22552         2.08558
C         38.99546        25.07086         1.45839
C         40.17964        27.32181         2.32711
C         38.90834        26.51936         1.80010
C         40.21085        28.85561         2.41818
C         38.94161        29.53975         1.91284
C         40.24430        31.67115         1.74946
C         39.01432        30.99013         1.62180
C         40.25679        33.12058         1.67993
C         39.02211        33.84218         1.46241
C         40.20985        35.99785         1.62945
C         39.02991        35.27843         1.40473
C         40.23638        37.41791         1.56152
C         39.02688        38.14474         1.27188
C         40.24802        40.29414         1.38729
C         39.05438        39.57657         1.15486
C         40.29132        41.70451         1.23887
C         39.09625        42.41333         0.88621
C         40.34748        44.54932         0.95998
C         39.15651        43.83301         0.74388
C         40.36178        46.00565         0.93451
C         39.15027        46.73343         0.80497
C         40.33742        48.86263         1.00554
C         39.11443        48.14511         0.89656
C         40.32081        50.28816         1.02864
C         39.07634        51.00039         0.94395
C         40.28175        53.14266         1.01500
C         39.13036        52.44806         0.87194
C         42.90986        20.24993         1.67220
C         41.64021        20.93946         1.56442
C         42.70701        23.04641         2.40739
C         41.49492        22.29397         1.92827
C         42.78098        24.53920         2.27080
C         41.66849        25.31705         2.61100
C         42.66456        27.34046         1.79200
C         41.51374        26.67286         2.28892
C         42.65175        28.80037         1.67503
C         41.47137        29.51100         1.88655
C         42.73003        31.62529         1.87220
C         41.47705        30.94198         1.85884
C         42.71439        33.09841         2.01143
C         41.44550        33.81532         1.83953
C         42.68858        36.00431         1.57863
C         41.45568        35.30059         2.09027
C         42.70494        37.39248         1.54471
C         41.46312        38.10335         1.68528
C         42.75611        40.23796         1.54218
C         41.46280        39.57555         1.92985
C         42.75102        41.69386         1.71463
C         41.50974        42.43960         1.42662
C         42.82992        44.54866         1.30229
C         41.56125        43.83487         1.26530
C         42.83977        46.00804         1.22852
C         41.57555        46.71505         1.11939
C         42.77712        48.88195         1.20976
C         41.56730        48.14762         1.11449
C         42.76389        50.28065         1.13552
C         41.54877        50.98669         1.10963
C         42.76853        53.07628         0.60235
C         41.58795        52.47865         1.33490
C         44.05689        20.90866         1.94172
C         45.26790        23.13045         1.98044
C         44.04662        22.33603         2.31861
C         45.17606        24.48712         1.58699
C         43.92148        25.20892         1.76636
C         44.95179        27.30297         0.79354
C         43.84350        26.60875         1.53975
C         45.07418        28.77016         1.14238
C         43.89648        29.49782         1.47515
C         45.22786        31.62374         1.60631
C         43.92530        30.91767         1.67163
C         45.26338        33.13604         1.53755
C         43.98789        33.87721         1.76830
C         45.14426        35.98273         1.01140
C         43.85081        35.21647         1.07735
C         45.13531        37.38981         0.99678
C         43.93543        38.10822         1.26523
C         45.19845        40.25562         1.08103
C         43.93605        39.54358         1.29948
C         45.25911        41.62836         1.20037
C         44.07074        42.40846         1.58078
C         45.30661        44.52759         1.16977
C         44.04516        43.86079         1.34157
C         45.35262        45.99969         1.46956
C         44.03064        46.70417         1.31443
C         45.26255        48.85826         0.90495
C         44.06694        48.19061         1.55383
C         45.21775        50.21094         0.62690
C         44.07431        51.04481         1.19140
C         43.93042        52.41449         0.56638
C         47.65097        23.14868         1.47753
C         46.51742        22.49182         1.95396
C         47.57210        24.46291         1.00333
C         46.33766        25.17030         1.10870
C         47.40706        27.29438         0.42128
C         46.27473        26.57761         0.81352
C         47.39893        28.71716         0.33989
C         46.29053        29.42339         0.84317
C         47.52295        31.62416         0.39899
C         46.42047        30.87674         1.07322
C         47.32194        33.06091        -0.02060
C         46.34490        33.84192         0.81549
C         47.48060        35.94277         0.16429
C         46.31607        35.23286         0.67519
C         47.49658        37.35587         0.19072
C         46.35177        38.10529         0.65113
C         47.57618        40.22001         0.28566
C         46.38539        39.50408         0.69329
C         47.64535        41.62731         0.40707
C         46.58019        42.34807         1.18683
C         47.68271        44.53752         0.52218
C         46.47937        43.83437         0.90731
C         47.68235        45.95453         0.45771
C         46.50852        46.71343         0.81037
C         47.72416        48.88763         0.45334
C         46.45931        48.08853         0.65917
C         47.45271        50.13434        -0.35154
C         46.28746        50.79278        -0.16777
C         50.10934        24.52411         0.49407
C         48.75066        25.11634         0.38065
C         49.91735        27.38885         0.01980
C         48.67097        26.59116         0.11791
C         49.84656        28.72219        -0.29207
C         48.49980        29.38755        -0.46702
C         49.73174        31.57822        -0.64639
C         48.59412        30.88580        -0.30583
C         49.75646        33.04510        -0.66721
C         48.62040        33.78315        -0.28971
C         49.75764        35.90912        -0.81353
C         48.61882        35.20664        -0.30124
C         49.73388        37.32569        -0.83803
C         48.64612        38.06058        -0.29735
C         49.84166        40.21054        -0.70393
C         48.67961        39.49517        -0.26289
C         49.90042        41.63015        -0.56119
C         48.78612        42.34849        -0.01392
C         49.99655        44.47997        -0.35298
C         48.82658        43.78907         0.07469
C         50.02684        45.91501        -0.35722
C         48.85900        46.65367         0.00320
C         50.06746        48.73171        -0.39032
C         48.89032        48.06876        -0.03078
C         51.22676        25.25853         0.42131
C         52.38812        27.38363        -0.39770
C         51.24754        26.76749         0.39374
C         52.27688        28.73909        -0.80578
C         51.03264        29.46831        -0.65569
C         52.09040        31.56446        -1.42190
C         50.95702        30.84693        -0.94375
C         52.09330        32.97644        -1.51945
C         50.92808        33.72664        -1.12276
C         52.06642        35.82101        -1.73755
C         50.91437        35.15271        -1.24804
C         51.97991        37.25063        -2.07707
C         50.78711        38.06197        -1.55849
C         52.10228        40.20969        -1.67654
C         50.92791        39.51726        -1.32766
C         52.22156        41.60526        -1.41332
C         51.09136        42.33102        -0.92291
C         52.35465        44.44886        -1.11684
C         51.14502        43.75224        -0.79600
C         52.41694        45.86699        -1.04149
C         51.21921        46.61223        -0.71585
C         51.21235        48.02033        -0.73014
C         54.69256        27.34665        -1.18274
C         53.59796        26.70613        -0.60634
C         54.60707        28.69606        -1.57712
C         53.38042        29.38018        -1.41961
C         54.52282        31.51227        -2.28703
C         53.24873        30.77372        -1.87321
C         54.50544        32.98600        -2.17796
C         53.29700        33.68208        -1.90219
C         54.49588        35.82571        -2.27387
C         53.28481        35.11583        -1.96605
C         54.50776        37.26127        -2.41176
C         53.23017        37.98755        -2.44141
C         54.58455        40.16727        -2.23657
C         53.26229        39.51723        -2.28635
C         54.64728        41.58246        -2.00305
C         53.46242        42.29431        -1.64972
C         54.75098        44.40022        -1.70187
C         53.52205        43.71005        -1.48594
C         54.79238        45.81200        -1.58742
C         53.65097        46.52387        -1.28279
C         55.79482        29.41700        -1.99348
C         55.78525        30.74940        -2.23180
C         55.69236        33.70869        -2.39558
C         55.68977        35.09184        -2.43930
C         55.68680        37.99322        -2.55008
C         55.71932        39.39584        -2.48910
C         55.87156        42.29559        -2.15683
C         55.92323        43.66195        -2.02416
O         33.14576        37.97159        -2.19296
O         39.16414        26.80558         3.21614
O         40.59414        24.66056         3.22269
O         50.87070        37.60440        -2.95555
O         29.83369        29.19562        -0.13244
O         36.98688        29.29645        -0.96313
O         33.65529        28.22156        -2.45018
O         43.50775        33.73684         3.12002
O         37.76969        29.18858         2.72365
O         38.06304        45.36957        -0.87733
O         53.03298        38.86739        -3.58264
O         53.58578        30.99347        -3.28847
O         43.38991        22.57259         3.61327
O         31.39438        26.64190        -0.05470
O         47.63229        31.28676         1.81716
O         34.58133        48.23410         2.23465
O         48.50306        25.61497        -0.99150
O         45.62414        32.41424         2.76667
O         31.80021        35.67978        -2.65767
O         43.50886        42.10724         2.92294
O         45.66460        46.06905         2.93125
H         45.07207        45.42706         3.38029
O         47.04436        42.29963         2.59240
H         46.28175        42.54007         3.16185
O         32.41953        32.72200         0.93623
H         32.26570        33.55492         1.42838
O         30.80380        40.80942        -2.53962
H         31.02497        40.02919        -3.09082
O         40.25781        29.13808         3.84412
H         39.46293        28.70592         4.23215
O         48.11460        49.36022         1.79373
H         47.37072        49.90144         2.13631
O         41.36683        39.73741         3.39872
H         42.13881        39.28041         3.79611
O         43.52026        34.84336        -0.32210
H         43.43875        35.67486        -0.83675
O         33.81605        32.03943        -2.35621
H         34.08015        31.20439        -2.79770
O         48.09872        29.16666        -1.86623
H         48.24265        28.21630        -2.06699
O         33.38427        37.88267         1.41480
H         33.88569        38.31683         2.13727
O         44.51065        27.27578        -0.62463
H         45.23979        27.65704        -1.16036
O         41.84328        52.67868         2.76216
H         42.72773        52.27462         2.95061
O         41.48333        35.46218         3.55991
H         42.26374        34.93984         3.87208
O         30.33107        41.12233         1.07530
H         30.22033        41.90123         1.65940
O         44.37055        51.24131         2.61542
H         44.36404        50.33768         3.02556
O         33.29107        46.24428        -1.80885
H         32.63092        45.71800        -2.30890
O         51.48037        27.15821         1.79457
H         51.52921        28.13750         1.82530
O         44.24989        48.39760         3.00953
H         44.92958        47.72821         3.28956
O         46.65928        32.93150        -1.33591
H         46.58888        33.82855        -1.72691
H         27.68789        26.83081        -2.63794
H         26.64521        28.99219        -3.29041
H         26.55857        31.45483        -3.16402
H         26.29736        33.21877        -2.21254
H         26.11745        35.59911        -1.69188
H         26.05632        37.50937        -1.29943
H         25.98329        39.91382        -0.90703
H         25.97283        41.85711        -1.36221
H         25.94187        44.32242        -1.23285
H         27.10972        46.47040        -0.87828
H         29.60678        25.56259        -1.82365
H         29.16728        47.72794        -0.44069
H         33.70217        23.57150        -2.00598
H         31.53596        24.66039        -2.24588
H         32.69968        49.78445         1.00457
H         30.72187        48.64281         0.17196
H         35.22989        22.61331        -1.42632
H         34.47086        50.83701         1.27473
H         37.15428        21.35515        -0.65205
H         36.55030        52.05582         0.94533
H         40.71485        19.18165         0.68350
H         38.69865        20.35667        -0.09674
H         40.26869        54.24154         0.95550
H         38.20180        53.00269         0.67549
H         42.93677        19.18503         1.39737
H         42.68312        54.08808         0.17672
H         45.01662        20.37813         1.87013
H         44.81031        52.89219         0.11270
H         48.60487        22.60557         1.45053
H         46.61729        21.45707         2.30704
H         48.24352        50.57085        -0.97819
H         46.12426        51.75579        -0.67129
H         50.19513        23.42988         0.57587
H         50.10231        49.82959        -0.38038
H         52.19501        24.74395         0.50754
H         52.11508        48.58088        -1.00377
H         55.64151        26.80583        -1.30655
H         53.70760        25.65924        -0.29362
H         55.74445        46.33596        -1.75338
H         53.71774        47.61693        -1.20963
H         56.74702        28.86596        -2.00580
H         56.73664        31.26745        -2.41636
H         56.63448        33.17864        -2.58497
H         56.63256        35.60734        -2.65949
H         56.65228        37.47550        -2.61912
H         56.70591        39.87463        -2.54097
H         56.79013        41.75477        -2.41824
H         56.87059        44.19948        -2.17288
