         420
 CSIRO Nanostructure Databank - Neutral Graphene Oxide Data Set
C         28.04343        27.79646        -2.07536
C         27.98549        29.13283        -1.68606
C         26.76122        29.80106        -1.38305
C         27.96193        31.83984        -0.68949
C         26.75052        31.09484        -0.92768
C         27.92878        33.20980        -0.24817
C         26.71018        33.89027         0.01324
C         27.89680        35.98821         0.38222
C         26.69293        35.23255         0.32202
C         27.85730        37.42828         0.60413
C         26.71115        38.18302         0.41802
C         27.87415        40.29488         0.90622
C         26.70547        39.58044         0.60954
C         27.88361        41.73954         0.95697
C         26.66251        42.48866         1.15075
C         27.81543        44.64099         0.88870
C         26.63890        43.84688         1.24536
C         27.94764        46.05009         1.26421
C         30.48473        27.66952        -1.76894
C         29.26255        27.09378        -2.13401
C         30.55232        29.12665        -1.57589
C         29.23348        29.89866        -1.56087
C         30.44021        31.89357        -0.66207
C         29.20497        31.23002        -0.93965
C         30.41181        33.25206        -0.29129
C         29.15456        33.93260        -0.12447
C         30.39845        36.11352         0.10985
C         29.12001        35.31910         0.18936
C         30.38764        37.36643         0.96319
C         29.08150        38.10973         1.07082
C         30.32367        40.27435         1.21448
C         29.11484        39.58994         1.10020
C         30.35667        41.70173         1.07687
C         29.11779        42.40547         0.93463
C         30.40635        44.58474         0.91512
C         29.14942        43.85501         0.73441
C         30.39634        45.98840         0.95387
C         29.14820        46.68514         1.18481
C         32.99287        24.87418        -2.00104
C         31.78776        25.59144        -2.06407
C         32.85645        27.49562        -0.86315
C         31.69302        26.91055        -1.63133
C         32.91609        29.00419        -0.80767
C         31.74076        29.75742        -0.95209
C         32.87249        31.80681        -0.20407
C         31.69761        31.15786        -0.64410
C         32.89155        33.18920         0.08366
C         31.64850        33.94451         0.02791
C         32.83621        35.92489         0.97355
C         31.63677        35.28870         0.32755
C         32.84342        37.43918         0.92284
C         31.65411        38.11733         1.02630
C         32.85120        40.29632         1.30956
C         31.58797        39.52990         1.58378
C         32.83748        41.66678         1.10973
C         31.59147        42.40823         1.04620
C         32.86434        44.54514         0.93566
C         31.62618        43.84171         0.97042
C         32.88284        45.98008         0.88453
C         31.64890        46.70099         0.88250
C         32.87277        48.76225         0.46640
C         31.68183        48.10679         0.72019
C         35.50182        23.38778        -1.88713
C         35.45624        24.75966        -1.63577
C         34.19368        25.47753        -1.58994
C         35.37670        27.50609        -0.86474
C         34.18332        26.84193        -1.16627
C         35.36471        28.91008        -0.51016
C         34.14675        29.62165        -0.46085
C         35.37597        31.79956        -0.07025
C         34.11030        31.00924         0.12928
C         35.39026        33.16821         0.15180
C         34.12696        33.86930         0.32658
C         35.34579        35.96372         0.75686
C         34.13888        35.25411         0.60641
C         35.29313        37.38820         0.95527
C         34.11189        38.10626         1.04613
C         35.34821        40.30200         1.05232
C         34.14024        39.54888         1.54394
C         35.31969        41.64243         0.83005
C         34.07979        42.39318         0.93422
C         35.34542        44.49533         0.75293
C         34.08271        43.78724         0.83930
C         35.34423        45.91181         0.92961
C         34.13080        46.69653         0.81907
C         35.29012        48.83373        -0.01705
C         34.11701        48.09199         0.48984
C         35.21502        49.82790        -1.03458
C         37.90975        23.27416        -1.51909
C         36.71306        22.65526        -1.74693
C         38.00112        24.78839        -1.58288
C         36.67011        25.46501        -1.32566
C         37.85839        27.48117        -0.52713
C         36.63719        26.80420        -0.94486
C         37.83766        28.90961        -0.30110
C         36.61909        29.59421        -0.34828
C         37.92673        31.81363        -0.16632
C         36.60657        31.07030        -0.36238
C         37.87137        33.20782         0.29392
C         36.64172        33.88969         0.33692
C         37.83752        35.93625         1.02142
C         36.62075        35.27891         0.71012
C         37.82891        37.36666         1.42330
C         36.55308        38.11678         1.23472
C         37.87532        40.27233         0.90119
C         36.58425        39.52251         0.68790
C         37.85805        41.64850         0.66305
C         36.55651        42.32725         0.29094
C         37.80140        44.49225         0.57369
C         36.55939        43.79998         0.60047
C         37.80067        45.91156         0.70431
C         36.61435        46.51362         1.09763
C         37.77655        48.87294        -0.26520
C         36.57825        48.53346         0.42036
C         37.67159        49.96898        -1.17186
C         36.36745        50.42839        -1.51837
C         40.52566        20.64275        -2.23843
C         39.30926        21.19546        -2.00253
C         40.37979        23.35481        -1.30842
C         39.15316        22.47142        -1.20941
C         40.30283        24.67222        -0.63126
C         39.13032        25.37147        -0.74814
C         40.19962        27.39715         0.29207
C         39.02167        26.74504        -0.32116
C         40.27330        28.86907         0.25476
C         39.09125        29.60800        -0.02011
C         40.33044        31.68719         0.46340
C         39.13212        31.01526         0.10414
C         40.32799        33.12854         0.61288
C         39.10261        33.86054         0.60253
C         40.33175        35.98002         0.97309
C         39.08521        35.26547         0.89300
C         40.35832        37.39819         1.08222
C         39.14381        38.13932         1.57920
C         40.31358        40.29966         1.08016
C         39.09439        39.58537         1.11136
C         40.31260        41.71293         0.91963
C         39.07063        42.39671         0.71669
C         40.26481        44.58461         1.09300
C         39.05134        43.81277         0.61548
C         40.28380        46.06116         0.68604
C         38.99763        46.62431         0.11425
C         40.18970        48.67294        -0.64549
C         38.99841        48.13514        -0.10087
C         40.13290        49.91616        -1.37765
C         38.88847        50.53024        -1.69518
C         40.03492        52.30621        -2.90814
C         38.86879        51.71769        -2.48395
C         43.00164        20.70336        -2.03286
C         41.76145        21.30185        -1.89309
C         42.92233        23.39778        -1.00270
C         41.70946        22.72756        -1.51950
C         42.84240        24.61743        -0.33357
C         41.50089        25.11507         0.18660
C         42.74379        27.36786         0.61555
C         41.47640        26.61235         0.49299
C         42.70061        28.73875         0.80985
C         41.48601        29.51177         0.60282
C         42.77084        31.63877         0.91125
C         41.52070        30.93945         0.66495
C         42.77943        33.09062         0.91680
C         41.56174        33.81578         0.81478
C         42.79444        35.95524         0.97740
C         41.56620        35.25582         0.90333
C         42.80820        37.40089         0.97698
C         41.56076        38.11648         1.02801
C         42.77960        40.25550         1.15388
C         41.57481        39.56513         1.12465
C         42.79170        41.73586         1.23953
C         41.54463        42.46540         0.93072
C         42.81173        44.57999         0.63988
C         41.57067        43.85407         0.83993
C         42.80017        45.94157         0.22910
C         41.54688        46.72801         0.25506
C         42.64625        48.57974        -0.97066
C         41.45745        47.99968        -0.50135
C         42.60046        49.86011        -1.63366
C         41.34215        50.49431        -1.86937
C         42.50100        52.31397        -3.04445
C         41.29302        51.71393        -2.60690
C         44.18237        21.41365        -1.73477
C         45.37768        23.36351        -0.75206
C         44.17138        22.71987        -1.21419
C         45.27694        24.58521        -0.03490
C         44.03784        25.26725         0.13736
C         45.19807        27.33634         0.88695
C         44.00380        26.63175         0.61536
C         45.22214        28.74868         1.13041
C         43.89898        29.43981         1.41526
C         45.17244        31.63826         1.52764
C         43.93604        30.92747         1.14974
C         45.23395        33.09975         1.31959
C         44.01227        33.79463         1.06898
C         45.26587        35.90450         1.11431
C         44.02548        35.22469         1.04668
C         45.29610        37.39418         1.32594
C         44.01395        38.10705         0.99359
C         45.23344        40.23658         0.84782
C         44.03130        39.54570         1.02195
C         45.40307        41.66462         1.31989
C         44.10099        42.49835         1.25021
C         45.25005        44.56121         0.34541
C         44.07388        43.89577         0.72178
C         45.23073        45.89299        -0.17575
C         43.97670        46.58624        -0.23818
C         45.11328        48.54907        -1.22090
C         43.91580        47.90853        -0.79838
C         45.06660        49.85593        -1.80623
C         43.79300        50.49112        -2.06350
C         43.71451        51.72726        -2.76323
C         47.82446        23.36197        -0.52441
C         46.65344        22.77680        -0.97424
C         47.79698        24.54354         0.24274
C         46.49508        25.11476         0.57562
C         47.73124        27.33498         1.01888
C         46.46273        26.61192         1.04330
C         47.70973        28.75424         1.09542
C         46.43507        29.42132         1.28576
C         47.80491        31.54288         1.86490
C         46.44725        30.85243         1.69155
C         47.71992        33.08590         1.75278
C         46.45222        33.78347         1.40205
C         47.73946        35.92726         1.08077
C         46.47674        35.19913         1.19744
C         47.70488        37.35468         0.74073
C         46.51758        38.03955         0.73192
C         47.65117        40.19590        -0.03683
C         46.41535        39.47637         0.39115
C         47.78498        41.65879         0.21586
C         46.63629        42.40880         0.79339
C         47.74251        44.53698        -0.14020
C         46.56020        43.88826         0.45435
C         47.71094        45.86520        -0.53324
C         46.43481        46.55337        -0.58700
C         47.58721        48.56699        -1.45615
C         46.38231        47.88639        -1.07570
C         47.49770        49.88036        -1.95502
C         46.27228        50.50156        -2.13734
C         50.23480        24.54284         0.65996
C         48.98506        25.21789         0.65231
C         50.19203        27.34944         1.00648
C         48.95784        26.62852         0.93398
C         50.17173        28.78504         1.02839
C         48.93256        29.47122         1.04356
C         50.21268        31.66765         1.09727
C         48.87166        30.97658         0.91879
C         50.24863        33.06960         1.20206
C         49.00282        33.83590         1.50331
C         50.24773        36.02762         1.23149
C         48.94209        35.27020         1.13588
C         50.17417        37.41746         0.62666
C         48.96750        38.01993         0.41642
C         50.18438        40.11534        -0.45483
C         48.91242        39.38277        -0.17936
C         50.12299        41.60254        -0.64216
C         48.93607        42.32003        -0.10636
C         50.28697        44.52401        -0.37921
C         49.00982        43.80039        -0.00113
C         50.19709        45.91344        -0.85423
C         48.93897        46.56041        -0.90623
C         50.07743        48.56645        -1.70338
C         48.87114        47.90980        -1.34814
C         51.40933        25.22280         0.87736
C         52.66763        27.36297         1.06311
C         51.42796        26.64185         0.99826
C         52.64983        28.79110         1.01810
C         51.41736        29.50204         0.99520
C         52.66856        31.64729         0.89587
C         51.42719        30.94234         0.98390
C         52.67242        33.06615         0.77939
C         51.45201        33.76426         0.94033
C         52.67919        35.91456         0.31348
C         51.40326        35.21916         0.66169
C         52.76351        37.40115         0.44271
C         51.45351        38.16256         0.47602
C         52.69027        40.17266        -0.36830
C         51.47675        39.51189        -0.08972
C         52.69629        41.55227        -0.73872
C         51.43423        42.30850        -0.80195
C         52.67089        44.43012        -1.07033
C         51.49184        43.76754        -0.71915
C         52.65986        45.85319        -1.27760
C         51.39425        46.56331        -1.26450
C         51.29618        47.91890        -1.67041
C         55.10822        27.37081         1.13811
C         53.91739        26.68422         1.14256
C         55.12396        28.79012         1.03339
C         53.89394        29.50412         0.98381
C         55.14924        31.61455         0.76376
C         53.90902        30.92532         0.87538
C         55.15419        33.04646         0.55981
C         53.92546        33.76640         0.54457
C         55.15915        35.86375         0.09035
C         53.95061        35.16534         0.31958
C         55.15873        37.29920        -0.20978
C         53.97422        38.06182        -0.08139
C         55.15420        40.11687        -0.74068
C         53.95187        39.45188        -0.35482
C         55.14822        41.53917        -1.00450
C         53.90676        42.25107        -0.97440
C         55.09854        44.35772        -1.47766
C         53.89147        43.67198        -1.20221
C         55.07109        45.77202        -1.66285
C         53.89139        46.48867        -1.57476
C         56.34955        29.50226         0.97589
C         56.35870        30.87294         0.83200
C         56.35977        33.76232         0.36172
C         56.36521        35.12508         0.13067
C         56.33393        37.97593        -0.61569
C         56.33336        39.33845        -0.85776
C         56.33633        42.26104        -1.30086
C         56.31732        43.62029        -1.53731
O         28.37347        44.31425        -0.41897
O         49.89673        44.32039         1.05061
O         50.52900        41.97587        -1.99677
O         46.37842        25.50010         1.97752
O         49.46499        39.40163        -1.53773
O         43.35944        42.30768         2.49635
O         46.66394        39.82194        -1.05474
O         29.67539        37.36687         2.23898
O         40.57025        26.86470         1.62878
O         30.08818        29.86125        -2.76071
O         36.98452        37.76668         2.58259
O         36.69212        47.81177         1.61079
O         51.71920        35.50914        -0.74085
O         37.36148        31.61701        -1.50834
O         46.98001        43.40972         1.79270
O         52.30139        37.98590         1.69210
O         48.45146        33.67880         2.87091
O         40.99542        23.48136        -2.62255
O         45.63584        31.16512         2.88618
O         40.96475        46.88994         1.65118
O         32.67270        35.64538         2.41921
H         32.77540        34.67745         2.54536
O         31.52144        39.30741         3.04626
H         30.84657        38.59335         3.18280
O         39.41059        38.23648         3.01561
H         38.53137        38.32937         3.45526
O         45.44987        37.57126         2.78702
H         44.65282        37.19343         3.21684
O         34.28300        39.44055         2.99912
H         33.38474        39.22230         3.35479
O         48.41045        31.29559        -0.43035
H         49.07989        30.96905        -1.06795
O         36.46943        42.19060        -1.18583
H         35.66012        42.66551        -1.47362
O         32.57401        27.12033         0.55351
H         32.60812        26.14022         0.59882
O         45.71110        41.43931         2.72485
H         44.85719        41.52323         3.21644
O         38.34712        25.11241        -2.97492
H         37.66165        24.71176        -3.55017
O         34.02875        30.77477         1.59446
H         33.32295        30.10851         1.74217
O         40.12485        44.58991         2.55155
H         40.67611        45.33837         2.87968
O         43.67903        29.30807         2.86160
H         44.37005        29.86689         3.29782
O         48.26146        31.20145         3.18010
H         47.57456        31.49509         3.81690
O         39.02277        46.12270        -1.27813
H         38.20151        46.41891        -1.72510
O         41.35860        24.41518         1.45905
H         40.83169        25.00859         2.04545
O         50.52772        36.14413         2.65215
H         49.73305        36.50161         3.10060
O         36.49608        39.32422        -0.76664
H         36.52054        40.22440        -1.17953
O         39.06797        22.09198         0.20139
H         38.24448        21.57586         0.32735
O         30.48212        36.63623        -1.26645
H         30.52437        35.86732        -1.87418
H         27.10621        27.24706        -2.24608
H         25.81444        29.25898        -1.52200
H         25.78180        31.56912        -0.72315
H         25.75597        33.34958        -0.03641
H         25.73092        35.72357         0.52214
H         25.78067        37.70141         0.08668
H         25.76603        40.12276         0.43863
H         25.74288        41.92821         1.37180
H         25.73126        44.36662         1.58617
H         27.05540        46.58990         1.61464
H         29.21635        26.01857        -2.35540
H         29.18852        47.75555         1.43051
H         32.99315        23.84107        -2.37181
H         30.92202        25.09977        -2.52879
H         32.85407        49.84036         0.25404
H         30.74789        48.68371         0.71121
H         34.58274        22.82297        -2.08746
H         34.23676        50.14724        -1.42056
H         36.65384        21.55651        -1.77966
H         36.26180        51.24041        -2.25031
H         40.59115        19.65758        -2.72640
H         38.40370        20.64461        -2.29872
H         40.00885        53.24005        -3.48775
H         37.90833        52.19115        -2.72729
H         43.07323        19.65903        -2.36965
H         42.45830        53.25548        -3.61045
H         45.13632        20.88561        -1.86211
H         44.62906        52.22129        -3.11514
H         48.78658        22.90005        -0.78475
H         46.73014        21.85442        -1.56377
H         48.40335        50.43331        -2.23335
H         46.26409        51.51864        -2.54858
H         50.26236        23.45388         0.51901
H         50.06026        49.61462        -2.02822
H         52.34794        24.65487         0.89760
H         52.19550        48.46950        -1.97675
H         56.06227        26.82819         1.20110
H         53.94311        25.58947         1.21684
H         56.01331        46.29622        -1.87872
H         53.92344        47.57591        -1.72955
H         57.29577        28.94503         1.02923
H         57.32561        31.38924         0.77370
H         57.32231        33.23500         0.37635
H         57.32857        35.62853        -0.02326
H         57.27459        37.42324        -0.73979
H         57.27486        39.81308        -1.16466
H         57.30028        41.73558        -1.33521
H         57.25375        44.15385        -1.75480
