         280
 CSIRO Nanostructure Databank - Neutral Graphene Oxide Data Set
C         30.18348        31.91215        -0.24911
C         30.41727        33.01838        -0.72612
C         30.91176        35.92600         0.26889
C         30.66763        36.87450         1.05960
C         31.07597        39.60928         1.95130
C         31.18776        40.39162         2.91431
C         32.51689        29.50376        -0.37299
C         31.33763        29.81165        -0.03871
C         32.87438        31.72817        -1.98100
C         30.25454        30.59249         0.31367
C         32.89013        33.10355        -2.10003
C         31.05664        34.11152        -1.40196
C         32.64964        36.13901        -1.47641
C         31.47557        35.29610        -0.86077
C         32.95708        37.28260        -0.44927
C         31.70125        38.05036        -0.03229
C         33.24823        39.68533         1.08157
C         31.97936        39.12770         0.95114
C         33.44189        40.81791         2.08556
C         32.59245        40.63815         3.44575
C         34.03820        42.44968         4.15679
C         32.94552        41.88872         4.19838
C         35.08713        27.74564         0.32843
C         35.03074        28.81954        -0.72535
C         33.79809        29.68675        -0.83093
C         35.18306        31.70814        -1.21035
C         33.97859        31.01970        -1.37970
C         35.17293        33.22060        -1.09923
C         33.96605        33.93554        -1.66655
C         35.22335        36.07878        -1.71889
C         33.93817        35.31697        -1.62361
C         35.32012        37.53338        -1.32874
C         34.04649        38.29826        -0.90940
C         35.55758        39.93377         0.26477
C         34.32601        39.29891         0.20328
C         35.79098        40.96829         1.27624
C         34.89520        41.22442         2.27819
C         36.18815        43.27745         3.01005
C         35.31348        42.14033         3.45148
C         36.43885        44.45082         3.64326
C         37.40204        27.93666         1.13431
C         36.11247        27.24309         0.80182
C         37.51029        29.03666         0.07405
C         36.30862        29.65482        -0.43643
C         37.65717        31.69935        -0.71574
C         36.34979        30.99717        -0.77938
C         37.69937        33.11820        -1.16626
C         36.46230        33.83097        -1.59003
C         37.84733        36.05178        -1.94625
C         36.50846        35.29385        -1.86882
C         37.90602        37.28127        -1.01106
C         36.64422        38.12226        -1.00143
C         38.01079        40.07591        -0.45551
C         36.72894        39.38329        -0.43465
C         38.03382        41.46282         0.07566
C         36.95309        41.86224         1.03640
C         38.15143        44.06960         1.44482
C         37.36760        42.88290         2.08440
C         38.47930        45.15803         2.52387
C         37.45572        45.23227         3.39131
C         39.74021        25.42486         2.53162
C         38.65054        25.92290         2.10043
C         39.88197        27.49620         0.79492
C         38.64734        27.11444         1.28926
C         39.94972        28.56363        -0.28743
C         38.77281        29.52829        -0.25217
C         40.11738        31.44536        -1.08187
C         38.90170        30.87419        -0.75649
C         40.20432        32.87858        -1.51207
C         38.97123        33.70550        -1.65961
C         40.34060        35.78467        -1.25449
C         39.04688        35.16497        -1.68357
C         40.32683        37.27852        -1.50155
C         39.20007        38.06159        -1.26755
C         40.32913        40.39509        -1.16789
C         39.15626        39.51977        -1.03765
C         40.41482        41.69111        -0.54467
C         39.29895        42.24567         0.12605
C         40.58721        44.27312         0.62617
C         39.38926        43.50935         0.74092
C         40.72028        45.57359         1.35055
C         39.64634        46.02172         2.33216
C         41.43283        47.27404         3.47508
C         40.29810        46.78898         3.40692
C         42.32747        25.29938         2.66192
C         41.05317        25.59110         2.15901
C         42.39750        27.61616         1.23159
C         41.15531        26.67314         0.95081
C         42.59920        28.70384         0.16643
C         41.32913        29.24207        -0.44311
C         42.66936        31.34619        -1.16808
C         41.35976        30.62356        -1.06138
C         42.58149        32.75395        -1.62867
C         41.51888        33.58184        -1.53788
C         42.95936        35.82345        -1.27495
C         41.61245        35.09136        -1.86332
C         42.85145        37.31337        -1.63566
C         41.60679        37.79046        -1.93931
C         42.76986        40.54891        -1.60958
C         41.49408        39.97536        -1.80682
C         42.78340        41.88029        -1.20904
C         41.60330        42.47550        -0.68672
C         42.92422        44.55777        -0.31267
C         41.68599        43.78404        -0.11541
C         42.88346        46.01472         0.16417
C         42.15426        46.04203         1.50447
C         43.76067        47.76333         2.32987
C         42.62226        46.91527         2.69568
C         43.46548        25.63399         2.23752
C         44.96956        27.63040         1.37868
C         43.71152        26.83073         1.42153
C         44.93644        29.08464         0.96001
C         43.85548        29.56122         0.27351
C         45.10782        31.87217        -0.11832
C         43.85063        30.98123        -0.27254
C         45.33874        33.26426        -0.70167
C         44.54448        33.88837        -1.60589
C         45.43529        36.20289        -1.18592
C         44.36372        35.35936        -1.85342
C         45.32222        37.56229        -1.19168
C         44.10511        38.21689        -1.86575
C         45.26849        40.44735        -1.30405
C         43.95853        39.65857        -1.25553
C         45.25453        41.90188        -1.69506
C         43.94019        42.70649        -1.68182
C         45.18898        44.89364        -1.36645
C         44.01029        44.05841        -0.98102
C         45.11091        46.43386        -1.02351
C         44.28536        46.63497         0.19924
C         44.49966        47.32002         1.36813
C         46.94545        28.13573         2.68285
C         46.12258        27.33647         2.21681
C         47.40807        29.33634         1.88619
C         46.03401        30.02654         1.48105
C         47.56342        32.01271         0.83152
C         46.31611        31.21629         0.54033
C         47.73581        33.40287         0.26831
C         46.57597        34.05552        -0.42158
C         47.71679        36.24693        -0.24851
C         46.57399        35.52810        -0.57189
C         47.73276        37.70327        -0.43615
C         46.38368        38.39835        -0.47890
C         47.64335        40.66621        -0.53660
C         46.43483        39.83737        -0.96762
C         47.79538        42.02208        -1.22652
C         46.53873        42.67960        -1.69340
C         47.85013        44.94388        -1.95393
C         46.47597        44.19898        -1.76985
C         47.58689        46.27036        -1.28793
C         46.54864        46.82715        -0.95599
C         49.37735        30.03845         3.37958
C         48.28951        30.31183         2.59935
C         49.74200        32.35740         2.17846
C         48.29068        31.78007         2.16693
C         49.95438        33.66626         1.49457
C         48.81754        34.27974         0.75580
C         50.00842        36.48189         0.81289
C         48.85697        35.59653         0.38142
C         50.19494        37.59940        -0.23371
C         48.90423        38.39861        -0.34891
C         50.28006        40.55624        -0.68974
C         48.95967        39.88223        -0.41881
C         50.31655        41.96560        -1.27541
C         48.98330        42.71013        -1.24093
C         50.22452        44.69035        -1.05326
C         49.01457        44.17479        -1.41133
C         50.50321        30.58539         3.71482
C         52.10039        32.37416         2.57036
C         50.96463        31.40232         2.49501
C         52.29420        33.43644         1.97955
C         51.34994        34.16439         1.05606
C         52.33607        36.56764         0.99485
C         51.35602        35.66649         1.03835
C         52.48938        37.81089         0.59322
C         51.47054        38.44974        -0.04452
C         52.70020        40.62514        -0.53557
C         51.55899        39.69200        -0.87341
C         52.59815        41.85758        -0.41241
C         51.57146        42.80116        -0.65316
C         51.32606        44.12874        -0.65680
O         36.89423        42.31741        -0.35991
O         46.02034        42.08181        -2.93819
O         43.68135        33.14301        -2.38958
O         36.43466        34.30210        -2.96254
O         39.76702        46.62633         1.01808
O         35.18415        37.14260        -2.74494
O         42.86400        45.47925         2.63721
O         42.19978        30.53027        -2.28339
O         37.72271        32.81772         0.27470
O         31.70136        33.70708        -2.61704
O         45.54477        44.69350        -2.78319
O         47.68197        33.43402        -1.19596
O         42.22426        28.32507        -1.16817
O         49.78550        40.47166         0.66771
O         43.97822        31.94201         0.84238
O         49.78584        33.60145         2.94602
O         47.53000        31.03138        -0.23280
O         44.59944        26.71735         0.31080
O         39.54445        33.03019        -2.85412
O         41.48691        38.93724        -2.72196
O         33.03225        39.52791         4.15812
H         32.52278        39.43811         4.98855
O         30.88867        38.40533        -1.04920
H         30.22163        39.05306        -0.74404
O         39.75975        27.80354        -1.53160
H         40.23339        28.26608        -2.25714
O         33.54903        36.68494         0.71765
H         32.84131        36.25286         1.24832
O         35.25448        28.21187        -2.00497
H         34.47140        27.67092        -2.23618
O         43.06935        35.58137         0.12451
H         42.17951        35.70693         0.53671
O         42.14558        28.32484         2.45702
H         42.12306        27.67951         3.19708
O         51.16813        30.54789         1.39437
H         51.95897        29.99512         1.56032
O         44.36030        38.36320        -3.26675
H         44.32601        37.46217        -3.66794
O         45.50449        30.54988         2.71205
H         44.75027        31.14500         2.48888
O         43.58173        42.98433        -3.06133
H         44.42646        43.03241        -3.57116
O         48.06236        45.11439        -3.33842
H         47.20424        45.35695        -3.75099
O         48.06809        28.84905         0.73424
H         49.02994        28.78948         0.90783
O         41.38226        25.93875        -0.23701
H         40.82420        26.31791        -0.96062
O         38.31711        42.20103         2.94400
H         37.79786        41.61354         3.54880
O         43.63141        39.45742         0.15092
H         44.39104        39.00709         0.61063
O         47.28187        41.01157         0.84728
H         48.13008        41.18581         1.32432
O         31.84060        31.03469        -2.51918
H         31.22097        31.69201        -2.90795
O         44.35162        35.59004        -3.28399
H         45.12308        35.13107        -3.67871
O         37.22547        28.63708         2.37958
H         37.19132        27.97034         3.09792
O         49.66538        37.09104         2.05654
H         49.50705        36.38952         2.72288
O         51.65486        39.33143        -2.27127
H         52.52202        38.89269        -2.41084
O         32.84253        41.99323         1.47615
H         33.29117        42.16529         0.62170
O         47.50837        32.55445         3.09355
H         47.98658        32.57752         3.95003
O         42.07975        46.75817        -0.76197
H         42.62275        46.93685        -1.56649
O         29.27406        30.18499         1.14019
H         29.46094        29.28609         1.47564
O         50.60434        41.85919        -2.66838
H         51.25720        41.13473        -2.81327
O         41.56186        35.31244        -3.26505
H         42.36905        34.92947        -3.67352
O         33.57756        39.05731        -2.02405
H         33.65412        38.47734        -2.81832
O         37.34657        44.76025         0.48890
H         37.12411        44.13080        -0.23950
O         36.12153        41.30626         4.33394
H         36.22012        41.78364         5.18541
O         32.24131        36.69745        -2.72119
H         32.10901        35.95870        -3.35300
O         51.55811        33.70734        -0.27557
H         52.37111        34.11773        -0.63501
O         45.99151        38.48101         0.94129
H         46.47152        39.26037         1.31849
O         37.97370        36.56103        -3.29090
H         37.75777        35.82464        -3.90444
O         35.08997        33.49031         0.33406
H         35.93578        33.17409         0.74054
O         40.41301        35.56651         0.19753
H         39.55391        35.89745         0.57377
O         37.95532        36.71527         0.35049
H         37.83788        37.44884         0.99219
O         44.45431        47.05406        -2.12677
H         44.84841        46.69023        -2.95096
O         50.39292        36.93098        -1.50472
H         50.58039        37.61905        -2.18395
