         294
 CSIRO Nanostructure Databank - Neutral Graphene Oxide Data Set
C          1.20528         2.48742        -1.69514
C          1.11211         3.69430        -1.01369
C          2.42329         1.92022        -2.07915
C          2.31042         4.50706        -0.77062
C          1.00149         6.46493         0.47958
C          0.98935         7.76824         0.81139
C          2.23901         5.85629        -0.09689
C          2.19792         8.63137         0.49755
C          0.99254        10.93586         0.68154
C          1.02189        12.26813         0.86739
C          2.16752        10.07528         1.10889
C          2.21947        12.99327         1.39279
C          1.04747        15.19230         0.84855
C          1.10662        16.21491        -0.05685
C          2.23264        14.54096         1.51959
C          2.33075        16.80342        -0.48727
C          2.41073        17.66858        -1.62525
C          3.67992         2.40948        -1.53137
C          3.63014         3.78576        -0.78392
C          4.98365         1.98654        -2.00476
C          4.89328         4.54181        -0.69548
C          3.51908         6.41496         0.46879
C          3.45596         7.85605         1.00835
C          4.82688         5.79543         0.08579
C          4.75184         8.60935         0.74573
C          3.44323        10.88159         0.65044
C          3.51740        12.24445         1.32038
C          4.75944        10.09814         0.73914
C          4.80344        12.96734         1.13662
C          3.57698        15.15518         1.06253
C          3.57904        16.38635         0.16392
C          4.82434        14.34910         1.02856
C          4.83561        16.65553        -0.64377
C          3.57857        18.25064        -2.04753
C          4.84727        18.08329        -1.23962
C          6.16282         2.65183        -1.64164
C          6.11843         3.97901        -1.03100
C          7.42576         2.07176        -1.89218
C          7.37485         4.69336        -0.84202
C          6.04561         6.65323         0.08924
C          6.00568         7.84436         0.93608
C          7.32514         6.12818        -0.46034
C          7.24232         8.52656         1.28826
C          6.01540        10.82030         1.06044
C          6.02374        12.19888         1.07892
C          7.25136        10.04843         1.35833
C          7.35126        12.89668         0.87764
C          6.08729        15.02066         0.79350
C          6.11452        16.39914         0.16979
C          7.29019        14.38628         0.98984
C          7.31773        16.45266        -0.77780
C          6.14338        18.31706        -1.99140
C          7.31790        17.67779        -1.66889
C          8.64148         2.72295        -1.56702
C          8.60251         4.09638        -1.06916
C          9.84770         2.03836        -1.70049
C          9.84263         4.80724        -0.73842
C          8.60767         6.93315        -0.18534
C          8.52981         7.70200         1.15732
C          9.85492         6.06956        -0.21286
C          9.80691         8.51427         1.45523
C          8.60838        10.73893         1.21748
C          8.49480        12.21522         1.67261
C          9.75698         9.96873         1.86787
C          9.82507        12.94094         1.57396
C          8.57115        15.07362         0.79205
C          8.59646        16.17064        -0.01845
C          9.79347        14.49107         1.49404
C          9.84472        16.92402        -0.40988
C          8.56197        17.95351        -2.32755
C          9.78279        17.45190        -1.84933
C         11.13537         2.69712        -1.54382
C         11.14906         4.16163        -1.06017
C         12.36989         1.94273        -1.44459
C         12.38422         4.64241        -0.38418
C         11.15445         6.81196         0.01099
C         11.09932         7.93593         1.03540
C         12.36342         5.93286         0.22103
C         12.29812         8.60836         1.27233
C         11.05297        10.76400         2.15224
C         10.98711        12.26350         1.79271
C         12.28148        10.13554         1.41275
C         12.30159        12.99652         1.85929
C         11.04968        14.90610         0.73050
C         11.05007        16.01587        -0.26486
C         12.35633        14.38045         1.28197
C         12.37291        16.59786        -0.74683
C         10.95994        17.55864        -2.61440
C         12.25484        17.16194        -2.15579
C         13.57101         2.57704        -1.09603
C         13.54463         3.87518        -0.44444
C         14.81437         1.97968        -1.39448
C         14.77837         4.24206         0.34947
C         13.53270         6.52915         0.73477
C         13.53621         7.89920         1.10855
C         14.75856         5.68267         0.88192
C         14.80387         8.50547         1.67879
C         13.59115        10.74624         1.90765
C         13.59400        12.23684         2.04198
C         14.86909        10.02824         1.62701
C         14.89858        12.96869         1.84760
C         13.65484        15.09019         0.83980
C         13.48404        15.50561        -0.63747
C         14.93944        14.28031         1.12179
C         14.78232        15.93619        -1.32869
C         13.42532        17.45530        -2.82633
C         14.71133        17.21397        -2.11757
C         16.01473         2.76313        -1.30045
C         15.99405         3.94781        -0.50815
C         17.14681         2.37946        -2.04176
C         17.21670         4.82540        -0.47926
C         16.06658         6.36475         1.13680
C         16.07489         7.87779         1.07428
C         17.37964         5.63864         0.82129
C         17.36067         8.44793         1.73346
C         16.06083        10.68154         1.66341
C         16.16073        12.14671         2.11524
C         17.33641         9.94928         1.46794
C         17.41373        12.83773         1.64397
C         16.25534        14.76900         0.47752
C         16.11201        15.41643        -0.90188
C         17.32902        13.64624         0.38050
C         17.39024        16.00428        -1.57479
C         15.95995        18.01109        -2.29392
C         17.28129        17.49445        -1.81493
C         18.38490         3.22847        -2.06968
C         18.47724         3.95301        -0.71600
C         19.65539         2.46350        -2.35092
C         19.75513         4.73594        -0.55097
C         18.59429         6.55581         0.64986
C         18.60887         7.82346         1.14074
C         19.80096         5.94377         0.07567
C         19.94061         8.48028         1.44746
C         18.65707        10.66874         1.58097
C         18.68688        12.13916         2.00532
C         19.88915         9.94468         1.76203
C         19.95450        12.74807         1.45706
C         18.65780        14.35607         0.03948
C         18.67331        15.55263        -0.86559
C         19.86204        14.11388         0.90776
C         19.82822        16.49133        -0.81406
C         18.38316        18.27859        -1.78823
C         19.68852        17.79244        -1.34871
C         20.84354         2.87845        -1.89835
C         21.04878         4.06111        -0.98376
C         21.95947         5.11579        -1.58787
C         21.16079         6.64276         0.19380
C         21.02388         8.17337         0.40415
C         22.01220         6.32641        -1.02148
C         22.32534         8.79164         0.88428
C         21.16966        10.65786         2.14657
C         21.14581        12.09227         1.57383
C         22.37596         9.87657         1.66806
C         22.36414        12.76741         1.15921
C         21.13688        14.83884         0.56715
C         21.06809        16.07077        -0.28257
C         22.37251        14.04725         0.70014
C         22.17621        16.92740        -0.37296
C         20.81311        18.63590        -1.41298
C         22.05265        18.19055        -0.95819
O          3.73766        16.50981         1.60643
O         12.64094        17.73660         0.09571
O         18.03242        10.33130         0.24775
O         12.28070        14.19476         2.72839
O         11.29452         3.88497        -2.46047
O          9.62523         8.94891         2.88333
O         13.59662        11.37249         3.23420
O          7.12267         9.25046         2.57433
O          4.87739         9.32484        -0.53787
O         15.33909         5.78182         2.25369
O          3.61833         2.56416        -0.04602
O          4.21495         5.54853         1.42070
O         15.05095        14.22607         2.58797
O         20.37082        15.13029         1.81525
O         10.79525        14.65393        -0.69418
O          6.44052         6.90247        -1.35763
O         19.06032        14.20840        -1.35784
O         15.36533        14.74171        -1.94704
O          2.83709        12.39449         2.59396
O          2.30583         5.79041        -1.56122
O          8.75059         7.91932        -1.23301
H          7.87212         7.96883        -1.69149
O          8.11549        12.20835         3.06183
H          8.33828        13.08520         3.44386
O          4.78262        19.08479        -0.19590
H          5.51920        18.88642         0.43613
O         16.22205        12.01479         3.57275
H         15.30487        11.80004         3.88063
O         16.08147         8.25375        -0.31125
H         16.57532         7.57719        -0.83868
O         21.26607        10.76988         3.58720
H         20.49589        11.31992         3.88007
O         18.49327         2.88023         0.24448
H         18.47220         3.28351         1.14450
O          9.75693        14.97532         2.84770
H         10.63885        14.77693         3.25154
O         20.36685         7.87261         2.71278
H         19.61077         7.95654         3.33895
O         13.79116        16.26088         1.65168
H         13.91466        15.94367         2.57480
O         11.25647        10.71812         3.56994
H         10.67151        10.01483         3.93547
O         21.85397         6.08789         1.34403
H         21.41352         6.45767         2.14988
O         18.86477        12.10059         3.45514
H         17.96240        12.14129         3.86395
O         14.77501         8.21476         3.11382
H         13.99774         8.67053         3.50340
O         15.04983        18.36964        -1.20760
H         13.50679        18.13571        -0.15495
O         17.45610        15.47354        -2.91456
H         17.76045        14.54002        -2.83015
O         11.41260         7.49221        -1.27203
H         10.54997         7.87358        -1.57283
O          3.34887         7.71980         2.44354
H          3.89151         6.93400         2.69657
O          6.27344        17.40818         1.18399
H          5.54186        17.26891         1.83333
O          7.22816        15.31267        -1.70235
H          7.94489        15.42205        -2.36370
O          2.08235        14.83275         2.92695
H          2.50473        14.08948         3.41853
O          9.97717        18.06263         0.46561
H         10.92982        18.32718         0.46627
O         14.80562         3.33562         1.49731
H         15.07536         3.86529         2.28201
O         17.08288         5.86843        -1.48934
H         17.32159         5.47273        -2.36787
O         18.24249         4.21210        -3.15543
H         18.10414         3.71683        -3.99013
O          2.06923         9.98271         2.52954
H          2.69096         9.29931         2.87068
O          7.61827        12.75368        -0.56617
H          7.35916        13.59934        -1.02678
O         20.59197         8.79523        -0.81848
H         21.24815         8.60814        -1.52067
O         16.78083        15.81028         1.31689
H         16.59530        15.55613         2.24969
O          2.27420         8.76747        -0.93342
H          2.20279         7.88254        -1.35500
O         13.03214        14.33258        -1.32907
H         13.80298        13.94754        -1.81137
O          4.79631        15.71926        -1.74244
H          4.08001        15.99662        -2.35245
O          9.04658        10.66363        -0.16166
H          8.54895        11.33423        -0.69777
O         17.41841         8.20937         3.15436
H         16.49004         8.17845         3.50260
O          3.26102        11.24418        -0.73609
H          3.34847        10.41460        -1.26483
O          8.46431         6.67565         2.16942
H          8.46331         7.14082         3.03635
O         12.19206        10.60176         0.03931
H         11.33482        10.30398        -0.34282
O         21.70919         3.54664         0.19944
H         21.88613         4.31927         0.79435
O         16.91620        12.77601        -0.69594
H         17.40534        11.91849        -0.61523
O         17.69302         4.77779         1.93536
H         16.94450         4.84330         2.57487
H          0.27454         1.99213        -2.00883
H          0.12705         4.14053        -0.82243
H          2.44271         1.08297        -2.79025
H          0.12059         5.82773         0.64994
H          0.09676         8.22337         1.26615
H          0.09144        10.45758         0.26792
H          0.14990        12.87127         0.57241
H          0.05746        14.85710         1.19129
H          0.16938        16.60041        -0.48761
H          1.47838        17.87031        -2.17605
H          5.04517         1.10796        -2.66352
H          3.57264        18.92345        -2.91813
H          7.47004         1.05892        -2.31810
H          6.17733        19.16766        -2.69202
H          9.83518         0.96563        -1.94464
H          8.55440        18.56332        -3.24592
H         12.36890         0.87479        -1.70863
H         10.88636        18.00691        -3.61891
H         14.83914         1.01431        -1.92033
H         13.41136        17.97883        -3.79428
H         17.10617         1.45688        -2.64214
H         15.99314        18.77910        -3.09872
H         19.58811         1.57240        -2.99652
H         18.30985        19.33836        -2.07915
H         21.75043         2.30408        -2.14496
H         22.60351         4.85896        -2.44304
H         22.71082         7.09343        -1.39434
H         23.26307         8.28968         0.59638
H         23.35456        10.23487         2.02372
H         23.31219        12.21310         1.20754
H         23.31467        14.47929         0.33043
H         23.14505        16.61374         0.04032
H         20.70741        19.64729        -1.83047
H         22.92929        18.84990        -1.02098
