         480
 CSIRO Nanostructure Databank - Neutral Graphene Oxide Data Set
C         37.58210        50.47640         0.63393
C         36.43239        51.18192         0.93418
C         37.67082        53.25930         0.86800
C         36.47653        52.58475         1.05066
C         40.02359        48.97676        -0.08462
C         40.02880        50.41463         0.14607
C         38.82252        51.14167         0.43417
C         40.11806        53.26511         0.34347
C         38.86820        52.56553         0.55756
C         40.22562        54.67661         0.49377
C         42.47985        48.87615         0.18501
C         41.15501        48.23788        -0.15164
C         42.47292        50.31720        -0.28514
C         41.24242        51.11489        -0.00974
C         42.55124        53.25839        -0.38607
C         41.28611        52.52468         0.03035
C         42.64390        54.68860         0.10437
C         41.45114        55.34424         0.42434
C         44.93621        46.03020        -0.53936
C         43.73917        46.75588        -0.39130
C         44.99625        48.82993        -0.24132
C         43.73952        48.13366        -0.23000
C         45.04941        50.25370        -0.16633
C         43.79249        51.01136        -0.34923
C         45.11306        53.16697         0.07989
C         43.79244        52.46481        -0.02397
C         45.10867        54.62348        -0.12550
C         43.92093        55.35747         0.01629
C         45.19366        57.46782         0.13871
C         44.01620        56.79447         0.18799
C         47.42394        44.47353        -0.44480
C         47.42988        45.88962        -0.51757
C         46.17803        46.66025        -0.49415
C         47.45872        48.78369        -0.35009
C         46.21459        48.08857        -0.36872
C         47.48469        50.16544        -0.15539
C         46.28062        50.93863        -0.09809
C         47.58338        53.07321        -0.19602
C         46.36088        52.39065        -0.08297
C         47.64456        54.52190        -0.31328
C         46.37772        55.27453        -0.43840
C         47.75566        57.44133        -0.11310
C         46.43148        56.82078        -0.30918
C         47.87303        58.81808         0.16260
C         49.86099        44.38806        -0.55176
C         48.60072        43.74860        -0.47359
C         49.88985        45.81323        -0.59088
C         48.66753        46.54825        -0.57775
C         50.00601        48.65417        -0.38963
C         48.69964        48.03858        -0.80128
C         50.05598        50.08214        -0.05775
C         48.76386        50.87890         0.04589
C         50.05699        52.98290        -0.20501
C         48.81954        52.33531        -0.14540
C         50.10490        54.44264        -0.30686
C         48.86130        55.20127        -0.35201
C         50.18116        57.34466        -0.34401
C         48.93458        56.66750        -0.30035
C         50.29046        58.75243        -0.16834
C         49.10003        59.45942         0.14371
C         52.27085        41.48529        -0.65180
C         51.10002        42.21078        -0.61741
C         52.34596        44.30947        -0.61687
C         51.10085        43.63394        -0.59502
C         52.36970        45.75832        -0.59710
C         51.15989        46.49416        -0.61328
C         52.46628        48.62652        -0.46267
C         51.19373        47.93674        -0.50592
C         52.50381        50.05041        -0.51060
C         51.29225        50.81839        -0.33513
C         52.53333        52.93308        -0.55238
C         51.27230        52.21014        -0.30385
C         52.58044        54.37633        -0.19405
C         51.31335        55.10686        -0.35928
C         52.72376        57.23626        -0.79234
C         51.39934        56.55466        -0.60278
C         52.80550        58.75389        -0.84791
C         51.55558        59.45037        -0.30769
C         52.86977        61.47997        -0.54776
C         51.64694        60.84116        -0.27084
C         54.82045        39.97707        -0.58211
C         54.77850        41.39243        -0.68841
C         53.53628        42.13053        -0.67333
C         54.83448        44.21955        -0.65335
C         53.56696        43.55176        -0.66105
C         54.84218        45.65412        -0.32993
C         53.61258        46.44588        -0.47337
C         54.94470        48.54945        -0.39795
C         53.67465        47.86300        -0.43883
C         54.94369        49.97203        -0.47998
C         53.76131        50.71011        -0.59222
C         55.09618        52.92184        -0.49883
C         53.81670        52.18459        -0.72037
C         55.14215        54.26007        -0.31668
C         53.89854        55.07076        -0.18248
C         55.16922        57.22009         0.09231
C         54.06040        56.50682        -0.66986
C         55.26232        58.60655         0.11804
C         54.11339        59.36532        -0.34685
C         56.04247        61.72153         0.27881
C         54.07620        60.75381        -0.55181
C         56.37485        63.05930         0.46989
C         57.25605        39.95934        -0.78086
C         56.01743        39.29012        -0.58188
C         57.22492        41.35906        -0.96027
C         56.01212        42.08811        -0.83787
C         57.31854        44.23271        -0.95519
C         56.04150        43.52809        -0.81508
C         57.38252        45.63584        -0.78837
C         56.18323        46.36676        -0.34527
C         57.42899        48.46890        -0.52829
C         56.17765        47.82980        -0.44044
C         57.47031        49.89546        -0.23305
C         56.20339        50.69547        -0.25581
C         57.56465        52.76355        -0.00863
C         56.36496        52.14215        -0.68448
C         57.55950        54.14339         0.40063
C         56.44071        55.02866        -0.12302
C         57.41114        56.96146         1.27434
C         56.13724        56.27242         0.78919
C         57.50977        58.41755         1.22982
C         56.45024        59.24787         0.76878
C         57.45285        61.03954         2.23156
C         56.60243        60.65307         1.02307
C         57.75009        62.51732         2.38383
C         57.24059        63.44808         1.52720
C         59.78655        37.34018         0.18794
C         58.59536        37.93995        -0.11305
C         59.74180        39.90266        -0.98715
C         58.53393        39.25795        -0.67916
C         59.70826        41.24745        -1.59808
C         58.42321        42.05847        -1.46182
C         59.70200        44.24231        -1.57908
C         58.49282        43.53520        -1.35406
C         59.75130        45.64392        -1.40332
C         58.58618        46.34898        -1.03643
C         59.87148        48.51256        -0.93776
C         58.63665        47.79225        -0.84812
C         59.89676        49.92044        -0.62919
C         58.73434        50.61427        -0.35219
C         59.94453        52.51899         0.64069
C         58.71350        51.99536         0.05217
C         59.91328        53.94078         1.17466
C         58.67127        54.71312         0.98225
C         60.00478        56.79428         1.51832
C         58.70261        56.13269         1.40944
C         60.03299        58.21391         1.72732
C         58.76550        58.98618         1.71412
C         60.02569        60.86858         2.70057
C         58.76149        60.26443         2.21461
C         60.04228        62.24354         3.30065
C         58.67820        62.91878         3.52396
C         59.92016        65.09351         3.38485
C         58.79128        64.41386         3.65317
C         62.36590        36.04750         0.87886
C         62.25208        37.38156         0.34461
C         61.04785        37.99023        -0.04430
C         62.20204        40.05814        -0.81907
C         61.01012        39.31324        -0.65706
C         62.25136        41.37048        -1.38095
C         60.99363        41.98715        -1.82308
C         62.24604        44.21732        -1.79616
C         60.96099        43.52580        -1.92172
C         62.28241        45.68252        -1.46346
C         60.98962        46.42314        -1.81441
C         62.35237        48.45067        -1.13439
C         61.09489        47.83773        -1.26820
C         62.44996        49.88873        -0.80595
C         61.16607        50.67620        -0.59972
C         62.40187        52.47176         0.61042
C         61.21876        51.91378         0.21379
C         62.43180        53.82852         1.22176
C         61.19860        54.64207         1.26110
C         62.49400        56.72454         1.49287
C         61.22029        56.02895         1.45205
C         62.52674        58.10516         2.10665
C         61.24655        58.87001         1.90365
C         62.56818        60.89125         2.80852
C         61.30612        60.36868         2.05065
C         62.50662        62.40668         2.75143
C         61.26962        63.05037         3.03201
C         62.28397        65.22040         2.53853
C         61.16281        64.44806         2.97561
C         62.15667        66.62006         2.28181
C         64.55390        36.61599         1.93010
C         63.49430        35.62242         1.50815
C         64.74011        37.68277         0.87530
C         63.56300        38.03186        -0.00899
C         64.74102        40.22412        -0.46637
C         63.43242        39.52041        -0.21640
C         64.73301        41.47559        -1.24079
C         63.45500        42.09187        -1.53581
C         64.70594        44.23137        -1.92370
C         63.43761        43.50892        -1.83013
C         64.78551        45.60125        -1.86820
C         63.52796        46.42140        -2.00404
C         64.84815        48.29944        -0.96532
C         63.61092        47.76589        -1.31023
C         64.92955        49.58759        -0.14947
C         63.65889        50.40234        -0.19619
C         64.99691        52.49681         0.39940
C         63.65815        51.71128         0.42926
C         64.95675        53.96719         0.49820
C         63.75247        54.61665         1.08101
C         64.85393        56.88398         0.83121
C         63.65026        56.08563         1.12363
C         64.92897        58.26147         1.37415
C         63.79165        58.90873         1.85447
C         65.05037        61.00077         2.24220
C         63.83812        60.29144         2.22267
C         64.99300        62.49844         2.48693
C         63.64759        63.15953         2.45100
C         64.63344        65.38935         1.82743
C         63.53827        64.58310         2.30734
C         64.44938        66.75207         1.48138
C         63.18773        67.35368         1.74955
C         67.24055        34.08273         3.11786
C         66.02562        34.61276         2.74674
C         67.24248        36.74794         2.09505
C         65.88722        36.01928         2.41767
C         67.22846        37.86455         1.14842
C         65.95418        38.35114         0.64378
C         67.22720        39.99004        -0.75660
C         65.97181        39.47831        -0.22732
C         67.19884        41.33885        -1.47095
C         65.92491        42.06429        -1.59602
C         67.20751        44.10183        -2.53889
C         65.92545        43.42857        -2.16185
C         67.19952        45.68387        -2.65429
C         66.05185        46.31071        -1.85314
C         67.38966        48.30312        -1.12742
C         66.08185        47.59416        -1.31103
C         67.36223        49.79627        -0.92937
C         66.09693        50.48863        -0.56694
C         67.33381        52.64570        -0.47972
C         66.12743        51.83799        -0.29564
C         67.33362        54.04933        -0.18088
C         66.08785        54.69534         0.21735
C         67.42227        56.78602         0.72636
C         66.08644        56.17505         0.37941
C         67.37369        58.28778         0.87635
C         66.18190        58.94123         1.33798
C         67.55895        60.78680         1.96077
C         66.24134        60.27191         1.86621
C         67.52606        62.96605         2.01998
C         66.17390        63.47603         2.24128
C         66.92012        65.43464         0.89343
C         65.91789        64.79814         1.64585
C         66.71830        66.79813         0.47423
C         65.52923        67.48362         0.85660
C         66.49830        69.55024        -0.00087
C         65.44173        68.86871         0.57905
C         69.70809        33.30514         4.63350
C         69.75415        34.04099         3.30424
C         68.46966        34.77721         2.96842
C         69.72157        36.60713         1.84719
C         68.50569        36.01034         2.29192
C         69.70974        37.83805         1.16043
C         68.45303        38.41234         0.72123
C         69.69004        40.22702        -0.44383
C         68.49493        39.54333        -0.16228
C         69.69204        41.47240        -1.19886
C         68.46476        42.08042        -1.58393
C         69.68561        43.77149        -2.75221
C         68.45660        43.31680        -2.26179
C         69.65118        45.93423        -3.03398
C         68.53538        46.37249        -2.41204
C         69.67581        48.59659        -2.33653
C         68.70512        47.62186        -1.56189
C         69.74926        49.97369        -1.70500
C         68.42908        50.68655        -1.57397
C         69.74866        52.72902        -0.85799
C         68.51666        52.03067        -0.89764
C         69.75611        54.13188        -0.57409
C         68.52358        54.79161        -0.31095
C         69.82176        56.96819        -0.02490
C         68.48160        56.30830        -0.27877
C         69.82916        58.33754         0.32690
C         68.57772        58.98905         0.73186
C         69.81342        61.21485         1.01878
C         68.63422        60.31644         1.22677
C         69.47722        62.58560         0.40904
C         68.41752        63.43881         1.10122
C         69.17167        65.38020        -0.17220
C         68.16766        64.75921         0.56419
C         68.90078        66.71538        -0.74584
C         67.74646        67.49229        -0.22693
C         68.89135        69.67014        -0.88018
C         67.66682        68.87785        -0.42216
C         68.59471        71.02664        -1.45315
C         72.14499        33.24606         4.58058
C         70.86404        32.90654         5.19791
C         72.21517        34.21499         3.64769
C         70.96045        35.00781         3.32949
C         72.20520        36.80625         2.05774
C         71.03006        35.86649         2.05588
C         72.15727        38.00766         1.44696
C         70.93448        38.53063         0.86120
C         72.13003        40.46670        -0.15484
C         70.92688        39.72494         0.10587
C         72.12833        41.62599        -0.87853
C         70.91998        42.17075        -1.43152
C         72.10774        44.19055        -2.44719
C         70.92239        43.35863        -2.22730
C         72.14826        45.52596        -2.69635
C         71.02404        46.47927        -2.88625
C         72.23202        48.55023        -1.84500
C         71.06027        47.93137        -2.49735
C         72.17610        49.81654        -1.38872
C         70.93414        50.58976        -1.39742
C         72.16635        52.74626        -1.07190
C         70.97294        52.02414        -1.08737
C         72.17605        54.12951        -0.83057
C         71.00367        54.84312        -0.57309
C         72.24021        56.99478        -0.14608
C         71.02930        56.27789        -0.26024
C         72.24568        58.35802         0.13289
C         71.05241        59.05574         0.37812
C         72.05789        61.35909        -0.15574
C         71.06868        60.53972         0.57841
C         71.87954        62.69120        -0.36911
C         70.66786        63.40287        -0.04247
C         71.52396        65.55497        -0.96168
C         70.45464        64.73972        -0.40054
C         71.33344        66.80204        -1.45192
C         69.99659        67.42598        -1.48112
C         70.58783        69.48916        -2.73784
C         69.84863        68.88127        -1.73881
C         70.37166        70.83232        -3.09860
C         69.34680        71.57217        -2.45999
O         59.83613        52.78322         2.07819
O         44.32240        52.74356         1.28963
O         66.38388        43.49562        -3.58555
O         66.51569        36.94332         3.35829
O         69.63189        44.73640        -3.76796
O         71.32066        47.53719        -3.88906
O         55.22889        61.49308        -0.82180
O         58.82019        41.43089        -2.73706
O         70.88333        61.05031         1.97619
O         51.99541        56.76003        -1.98571
O         53.21666        54.78487         1.08022
O         67.24292        40.08245        -2.23671
O         64.56571        51.79732         1.60370
O         60.16086        61.06695         4.15341
O         68.96313        66.66947        -2.23733
O         56.78189        50.32278         1.02127
O         60.98692        42.65989        -3.10600
O         63.97011        40.36552         0.82762
O         55.59346        45.90088         0.92018
O         57.83077        56.41645         2.57888
O         65.71312        63.13815         3.59025
O         53.08112        52.68826        -1.90256
O         61.87142        50.77418        -1.87317
O         67.82870        61.86311         2.80664
O         67.67029        48.90062         0.19634
O         46.31818        56.15622        -1.60733
O         43.07856        50.60863        -1.57429
O         49.46071        50.41324         1.26038
O         63.32967        54.00832         2.34977
O         65.26515        56.85815        -0.60642
O         42.55111        48.96864         1.64557
H         42.52420        48.05885         2.00873
O         55.44534        55.77682         1.95329
H         56.09977        55.74121         2.69078
O         68.79461        62.18506        -0.83787
H         68.64693        62.99731        -1.36933
O         63.97367        37.31338         3.07818
H         64.73035        37.72389         3.55926
O         71.21749        34.96513         0.91470
H         71.26520        35.51583         0.10457
O         54.54225        56.39367        -2.04942
H         53.74364        56.31841        -2.62529
O         70.76637        35.95987         4.40185
H         70.69430        35.45427         5.23937
O         56.66850        60.62031         3.39374
H         56.96885        61.18223         4.15400
O         60.86767        46.53621        -3.26639
H         60.05713        47.05137        -3.46291
O         58.11990        62.42398         4.76960
H         58.76853        61.76683         5.12484
O         69.94407        33.02205         2.29059
H         70.32928        33.46364         1.49666
O         63.89278        37.51213        -1.35281
H         63.87428        36.53251        -1.30687
O         69.62576        69.92118         0.39288
H         70.36099        70.53652         0.18348
O         62.57307        57.81753         3.56734
H         61.80701        57.24042         3.78026
O         52.80922        59.10905        -2.27495
H         52.16175        58.50568        -2.70984
O         62.34146        45.73630        -0.00872
H         63.17826        45.31746         0.28428
O         56.95333        55.47191        -1.40243
H         56.20486        55.89457        -1.89982
O         56.63458        52.09228        -2.11768
H         56.70038        53.01798        -2.43831
O         62.57085        60.49712         4.18770
H         62.61184        59.50823         4.22597
O         48.67370        48.21246        -2.27905
H         49.37639        47.63877        -2.65369
O         69.11022        48.76245        -3.65793
H         69.76065        48.37416        -4.29819
O         65.16293        49.16635         1.22723
H         65.15250        49.98551         1.77983
O         61.40530        60.94654         0.71620
H         60.74553        60.50611         0.14033
O         42.53823        53.33423        -1.84544
H         41.70213        53.76653        -2.11794
O         63.46701        46.66241        -3.42787
H         62.53451        46.87177        -3.67772
O         67.76139        56.24321         2.02965
H         68.57980        56.68218         2.34400
O         69.40662        47.18948        -0.37520
H         69.08637        47.75675         0.36820
O         66.86083        45.98582        -4.02273
H         66.24729        45.27781        -4.33278
O         68.03839        56.74970        -1.58852
H         68.67805        56.42495        -2.25543
O         67.90506        50.99533        -2.90091
H         68.19195        50.26896        -3.51096
H         37.52988        49.38195         0.55888
H         35.48330        50.64967         1.08661
H         37.67780        54.35299         0.96662
H         35.56097        53.14315         1.28975
H         39.05766        48.47821        -0.25105
H         39.33687        55.26669         0.75196
H         41.08640        47.15983        -0.35735
H         41.45885        56.41510         0.67144
H         44.86515        44.94099        -0.65792
H         42.79420        46.19495        -0.38313
H         45.21735        58.52725         0.43022
H         43.11115        57.35014         0.46834
H         46.47436        43.92746        -0.36966
H         46.97061        59.41562         0.35002
H         48.53834        42.65363        -0.42485
H         49.12975        60.53974         0.33452
H         52.21234        40.38887        -0.67199
H         50.14837        41.66344        -0.61126
H         52.90782        62.57221        -0.65089
H         50.76688        61.46583        -0.06508
H         53.88791        39.40851        -0.46731
H         55.96744        63.81239        -0.21560
H         55.99530        38.19796        -0.47013
H         57.48784        64.51272         1.65539
H         59.77870        36.33993         0.64184
H         57.66403        37.40478         0.11471
H         59.92216        66.18310         3.52684
H         57.90230        64.94472         4.02373
H         61.52910        35.34222         0.75436
H         61.19529        67.11983         2.45738
H         63.53089        34.59178         1.88763
H         63.02201        68.41420         1.51843
H         67.28066        33.03091         3.43612
H         65.15751        33.94447         2.66787
H         66.40718        70.63605        -0.13557
H         64.54515        69.43420         0.86591
H         68.73988        33.02623         5.07555
H         67.83265        71.64914        -0.96399
H         73.04394        32.69857         4.89944
H         70.86736        32.30609         6.11965
H         73.17962        34.49176         3.19697
H         73.15030        36.45961         2.50018
H         73.06611        38.62475         1.42375
H         73.08767        40.09976         0.23716
H         73.07839        42.15160        -1.04484
H         73.08361        43.69405        -2.32669
H         73.14563        45.98017        -2.80612
H         73.17430        47.98476        -1.82130
H         73.07479        50.27165        -0.95025
H         73.12422        52.24556        -1.26655
H         73.14571        54.64462        -0.84117
H         73.20207        56.48707        -0.29629
H         73.20742        58.88694         0.18587
H         72.98515        60.88036        -0.50346
H         72.68787        63.23875        -0.87467
H         72.54451        65.14776        -0.96236
H         72.19368        67.38913        -1.80671
H         71.32664        68.89699        -3.29835
H         70.96014        71.28862        -3.90506
H         69.14253        72.59970        -2.79494
