         280
 CSIRO Nanostructure Databank - Neutral Graphene Oxide Data Set
C         30.56478        31.82851         1.61294
C         30.70441        32.96227         2.07306
C         30.62913        36.03168         1.26586
C         30.54974        37.07876         0.59800
C         30.46973        40.12334        -0.60808
C         30.43094        41.34061        -0.34121
C         32.64523        29.16568         0.09217
C         31.62174        29.71158         0.51464
C         32.96842        31.54165         1.38142
C         31.61319        30.75462         1.59434
C         33.07892        32.92487         1.85565
C         31.86326        33.89703         2.18451
C         32.96882        35.95788         0.91173
C         31.75078        35.00736         1.11048
C         32.84129        37.14460        -0.01233
C         31.52991        37.86193        -0.09036
C         32.74060        39.76108        -1.09508
C         31.49950        39.11267        -0.67676
C         32.61022        41.98677        -0.90814
C         31.40432        42.38183        -0.30138
C         32.71159        44.21145         0.48753
C         31.60636        43.65650         0.35188
C         35.35787        27.40474        -0.38624
C         35.16323        28.73599         0.22556
C         34.03043        29.68219        -0.09756
C         35.41738        31.53030         0.91411
C         34.09244        30.92469         0.85891
C         35.62220        32.92683         1.44984
C         34.31403        33.48408         1.90688
C         35.44567        36.11901         0.72172
C         34.21436        35.64645         1.35932
C         35.36416        37.59955         0.45382
C         34.08126        37.99856        -0.22957
C         35.20131        40.31535        -0.63718
C         34.00704        39.42386        -0.64655
C         35.07547        41.78706        -0.80217
C         33.90802        42.55179        -0.69646
C         35.30063        44.34012         0.44585
C         33.99297        44.06884        -0.31137
C         35.53522        45.82682         0.61507
C         37.82675        27.23507        -0.18372
C         36.47283        26.85483        -0.39995
C         37.84742        28.59293         0.58006
C         36.52177        29.36952         0.55259
C         37.75727        31.55843        -0.01542
C         36.55877        30.83979         0.57831
C         37.78560        33.05574         0.25948
C         36.41205        33.74826         0.34715
C         37.68625        35.84326        -0.34911
C         36.48420        35.29345         0.41547
C         37.72806        37.39470        -0.44647
C         36.49400        38.21344        -0.31220
C         37.76431        40.34813        -0.28796
C         36.44993        39.71732        -0.32465
C         37.95674        41.70186         0.34801
C         36.27382        42.63414        -1.05274
C         37.76198        44.64663        -0.73174
C         36.47781        43.85024        -0.45261
C         37.79300        46.11731        -0.25397
C         36.45986        46.47798         0.10981
C         40.17451        24.53536        -1.16005
C         39.19226        25.24203        -0.87244
C         40.34708        27.15848        -0.00834
C         38.98141        26.54731        -0.34979
C         40.26452        28.68350         0.07070
C         39.09413        29.38850         0.21259
C         40.25259        31.58146         0.17639
C         39.08314        30.85535         0.19634
C         40.26928        33.04179         0.16136
C         38.97263        33.73024         0.24565
C         40.23665        35.98783         0.19437
C         38.95742        35.22131         0.23137
C         40.19789        37.29069        -0.63487
C         39.00983        38.14839        -0.14446
C         40.21521        40.32854        -0.73610
C         38.92859        39.61991        -0.51697
C         40.31589        41.80994        -0.52124
C         39.08758        42.56009        -0.11865
C         40.34532        44.66511        -0.55451
C         39.04473        43.90613        -0.31255
C         40.30385        46.09465         0.06552
C         38.95646        46.81843        -0.19646
C         40.24324        48.92527         0.15401
C         39.23727        48.20030         0.07904
C         42.76430        24.63764        -1.52920
C         41.39876        25.25136        -1.69150
C         42.67190        27.34137        -0.97976
C         41.50380        26.65467        -0.92835
C         42.77404        28.70246        -0.37603
C         41.55727        29.39395         0.15104
C         42.79194        31.61921         0.02731
C         41.55558        30.88117         0.49952
C         42.75386        33.04860         0.03575
C         41.47271        33.74270         0.11306
C         42.74487        35.96856        -0.17990
C         41.55514        35.23807         0.41399
C         42.76032        37.31290        -0.36185
C         41.51180        38.05840        -0.65835
C         42.73491        40.27519        -0.30386
C         41.50560        39.54603        -0.76613
C         42.78528        41.75676        -0.40662
C         41.63714        42.47079        -0.40572
C         42.83655        44.67111        -0.53864
C         41.60883        43.93247        -0.02028
C         42.89467        46.15361        -0.37331
C         41.55591        46.93224        -0.38778
C         42.88559        48.94047        -0.17561
C         41.61953        48.35566         0.39092
C         43.79735        25.30562        -1.54484
C         45.22328        27.29382        -0.78458
C         44.02985        26.77339        -1.57925
C         45.24967        28.80088        -0.26269
C         43.98243        29.54219        -0.78456
C         45.23803        31.64518        -0.21317
C         43.98812        30.94934        -0.21902
C         45.21394        33.05886        -0.06977
C         43.96526        33.74767        -0.08159
C         45.24857        35.89293         0.02543
C         44.00706        35.19670        -0.46530
C         45.18018        37.37572         0.25569
C         44.07650        38.05086        -0.57909
C         45.27692        40.26376         0.05079
C         44.01134        39.51635        -0.13537
C         45.20302        41.74693         0.37271
C         44.16520        42.36032        -0.59794
C         45.41224        44.61301        -0.74532
C         44.10436        43.88143        -0.70522
C         45.38156        46.14235        -0.75078
C         44.09054        46.82991        -0.52920
C         43.91090        48.25111        -0.31656
C         47.71145        27.37089        -0.31668
C         46.49006        26.93716        -0.67318
C         47.78682        28.74412        -0.31864
C         46.50912        29.52047        -0.76270
C         47.69959        31.70276        -0.26157
C         46.50347        30.98662        -0.36530
C         47.68357        33.10051         0.04924
C         46.44559        33.76770         0.07440
C         47.60832        35.89282         0.73944
C         46.40690        35.20616         0.26072
C         47.63067        37.27129         0.78946
C         46.55065        38.04813         0.05882
C         47.75426        40.25889         0.73444
C         46.45778        39.51986         0.45913
C         47.86468        41.70260         0.41697
C         46.58212        42.47633         0.30433
C         47.99265        44.51317        -0.51422
C         46.63734        43.89862        -0.19567
C         47.79845        45.97701        -0.48552
C         46.73170        46.59480        -0.35421
C         50.33369        29.01309        -0.19659
C         48.96897        29.54683         0.14049
C         50.28548        31.79720        -0.41221
C         48.98580        30.97655        -0.61464
C         50.25573        33.25927         0.09368
C         48.88727        33.81858         0.44844
C         49.84458        35.70432         1.92451
C         48.81081        35.10132         0.96689
C         49.99035        37.25436         1.77274
C         48.81851        38.02762         1.24566
C         50.14578        40.19743         1.36357
C         49.03216        39.42069         0.64415
C         50.33553        41.58341         0.71041
C         49.12183        42.29017         0.30700
C         50.56453        44.24697        -0.01025
C         49.22047        43.70877        -0.24294
C         51.41615        29.59228        -0.31387
C         52.66647        31.80085         0.28979
C         51.65265        31.02980        -0.42606
C         52.55346        32.91053         0.82165
C         51.31180        33.59845         1.21342
C         52.29181        35.77732         2.23468
C         51.16799        34.87664         1.95585
C         52.35590        36.98278         1.94049
C         51.33091        37.95654         1.71652
C         52.53782        40.16356         1.41379
C         51.41719        39.30037         1.48479
C         52.69279        41.38382         1.18755
C         51.59913        42.21443         0.75872
C         51.53944        43.59836         0.39337
O         49.07489        37.94181         2.68850
O         50.98157        33.59771         2.60016
O         33.60694        37.05853        -1.25561
O         41.68750        38.74967        -1.98259
O         46.53318        43.62738         1.23057
O         36.93988        37.75821        -1.63093
O         39.42722        35.92169         1.41554
O         43.12089        39.78041         1.02570
O         37.38843        41.91870         1.41815
O         48.69694        43.88839        -1.59420
O         51.16566        31.66059        -1.60938
O         34.42134        34.78218         2.43605
O         44.02457        29.68195        -2.16348
O         45.54121        45.36705        -1.97621
O         40.11997        41.25688        -1.88350
O         46.88805        39.88977         1.83864
O         35.59215        28.82579         1.58494
O         32.57000        40.93525        -1.84201
O         42.52625        28.68318         1.07880
O         43.26973        44.22383        -1.86269
O         48.88367        30.67643        -2.01857
H         49.79777        30.67892        -2.39324
O         41.19505        25.54986        -3.04231
H         41.22222        24.72558        -3.56879
O         35.41516        38.27490         1.74238
H         34.80974        37.81833         2.36528
O         36.49248        32.83827         2.60288
H         36.29713        33.59645         3.19363
O         37.56695        35.31721        -1.69536
H         37.24541        36.05404        -2.26817
O         39.91225        36.86703        -1.97869
H         40.32686        37.51641        -2.59353
O         49.69090        40.46221         2.69480
H         50.39895        40.92373         3.18993
O         33.94962        44.88326        -1.45972
H         33.07081        44.81195        -1.88488
O         44.78610        37.58106         1.62853
H         45.41883        37.11653         2.21529
O         49.41203        39.27738        -0.72906
H         48.68779        38.80465        -1.21196
O         41.85762        35.28506         1.83863
H         40.99358        35.34310         2.31222
O         40.68177        26.65979         1.30145
H         41.44201        27.19197         1.63373
O         32.00093        34.48997         3.45030
H         31.95461        33.79646         4.13911
O         45.25530        28.80368         1.14458
H         44.37868        28.51203         1.48510
O         44.09214        35.20322        -1.93945
H         44.81787        34.59601        -2.19995
O         46.97064        38.03300        -1.33367
H         46.16462        38.05607        -1.91221
O         41.68904        43.83934         1.41165
H         41.20220        44.59109         1.83269
O         41.62504        30.96701         1.95666
H         42.23095        30.25353         2.25966
O         35.25307        43.64604         1.66724
H         36.15746        43.37563         1.94334
O         37.90181        44.76627        -2.18063
H         37.67379        43.89227        -2.57702
O         48.88446        29.80094         1.53079
H         48.60928        28.97973         1.98967
O         35.71638        33.50047        -0.90108
H         36.18507        34.05233        -1.57998
O         44.61366        41.91076        -1.90376
H         44.13202        42.44432        -2.57734
O         40.28541        45.96976         1.50468
H         40.58085        46.82796         1.90174
O         50.68174        34.10184        -1.00433
H         51.20032        33.53951        -1.62866
O         41.35532        47.29747        -1.75366
H         41.31381        46.46461        -2.28360
O         44.41452        38.02933        -1.98064
H         43.58853        38.21574        -2.48740
O         31.68661        30.13894         2.85338
H         30.91765        29.54466         2.96879
O         37.10172        42.19869        -2.06616
H         36.79351        41.33468        -2.40953
O         31.57235        34.34061        -0.12176
H         31.46524        34.99697        -0.84120
O         49.25397        35.47245         3.21636
H         48.82778        36.31484         3.50613
O         46.46203        29.44616        -2.19161
H         47.18260        30.01536        -2.55250
O         39.16013        38.29297         1.29242
H         38.33439        38.66389         1.67136
O         37.49309        31.42671        -1.45549
H         36.65211        31.91377        -1.63179
O         44.19748        27.17993        -2.91381
H         44.24670        28.18232        -2.92254
O         38.07544        28.22741         1.95650
H         37.19925        28.01653         2.35402
O         40.54088        44.77968        -1.97604
H         39.64279        44.89077        -2.38932
O         44.70575        41.88935         1.70772
H         45.28566        41.36816         2.30654
O         34.21729        30.15674        -1.42566
H         33.42441        30.66476        -1.69567
O         41.79007        48.15614         1.77864
H         41.81069        49.02593         2.22984
