         620
 CSIRO Nanostructure Databank - Neutral Graphene Oxide Data Set
C         23.11589        27.38903         1.24611
C         23.12989        28.76164         1.26289
C         23.13578        31.68596         1.25640
C         23.13715        33.06939         1.24259
C         23.08874        36.07022         0.76992
C         23.13024        37.42963         0.70351
C         23.17610        40.38001         0.69104
C         23.18144        41.75424         0.62206
C         23.18797        44.69508         0.58530
C         23.15709        46.05168         0.53644
C         25.39758        24.53293         0.49750
C         24.26622        25.23805         0.84014
C         25.47565        27.35447         0.54652
C         24.28063        26.65605         0.88292
C         25.48769        28.79491         0.59307
C         24.30882        29.49814         0.93612
C         25.48480        31.66645         0.59976
C         24.30288        30.94985         0.94171
C         25.46428        33.08893         0.55104
C         24.29375        33.78795         0.87062
C         25.61707        36.02857         0.78143
C         24.30020        35.27757         0.98806
C         25.57788        37.48364         0.56537
C         24.36568        38.17985         0.66230
C         25.60125        40.32092         0.38938
C         24.37408        39.62383         0.57363
C         25.61442        41.75676         0.35779
C         24.39218        42.48799         0.46293
C         25.63263        44.59469         0.24381
C         24.39797        43.92262         0.38042
C         25.65755        46.05095        -0.02189
C         24.31982        46.82373         0.08498
C         25.60032        48.91840         0.17441
C         24.41771        48.26505         0.32037
C         27.85556        23.03051        -0.01127
C         27.81114        24.40980        -0.14255
C         26.60933        25.19553         0.14775
C         27.82822        27.36222        -0.26294
C         26.62367        26.60924         0.14894
C         27.91463        28.81578         0.02337
C         26.70468        29.52619         0.33184
C         27.93640        31.64812         0.12793
C         26.70469        30.93737         0.33753
C         27.94439        33.06618         0.06560
C         26.64626        33.81891        -0.04446
C         27.95729        35.96691        -0.01023
C         26.79000        35.27467         0.33281
C         27.96500        37.40772        -0.01608
C         26.80158        38.16006         0.26295
C         28.05582        40.29322         0.02279
C         26.82352        39.59710         0.20827
C         28.10627        41.72549         0.12859
C         26.85637        42.45813         0.27789
C         28.11731        44.60078         0.45395
C         26.84598        43.86692         0.28030
C         28.15704        46.10355         0.32941
C         26.89373        46.83675         0.08284
C         28.11532        48.98110        -0.05038
C         26.86586        48.22546         0.02852
C         28.15036        50.34392        -0.28692
C         30.31264        22.90800         0.00945
C         29.07136        22.29677         0.01738
C         30.38563        24.34726        -0.29480
C         29.06789        25.09636        -0.47646
C         30.38492        27.27069        -0.29190
C         29.10725        26.58902        -0.49707
C         30.37636        28.74488        -0.61451
C         29.12260        29.48666        -0.14362
C         30.37970        31.64254        -0.11696
C         29.15642        30.91846        -0.04094
C         30.37288        33.03594        -0.05093
C         29.15390        33.77324        -0.04393
C         30.41609        35.88996        -0.37991
C         29.19123        35.22143        -0.19175
C         30.44640        37.32991        -0.68990
C         29.14960        38.12631        -0.48946
C         30.48699        40.23725        -0.42706
C         29.25116        39.57820        -0.26688
C         30.54909        41.67147        -0.28676
C         29.33983        42.38510         0.02599
C         30.66729        44.60246         0.02205
C         29.40512        43.84015         0.31785
C         30.62535        46.06864        -0.27152
C         29.41848        46.77396        -0.01687
C         30.63774        48.96748        -0.50583
C         29.39141        48.24318        -0.03642
C         30.53712        50.39248        -0.86947
C         29.33651        51.04196        -0.65119
C         32.83181        20.10443         0.16363
C         31.62381        20.78576         0.09039
C         32.77974        22.92758         0.30792
C         31.56886        22.19415         0.15316
C         32.74391        24.38649         0.41054
C         31.60196        25.10469         0.08625
C         32.76180        27.31002         0.26467
C         31.56295        26.57224         0.04392
C         32.78839        28.74376         0.13037
C         31.63458        29.45022        -0.20638
C         32.90423        31.59132         0.05947
C         31.66930        30.92580        -0.47134
C         32.92740        33.05516         0.20005
C         31.63185        33.79485         0.10895
C         32.89560        35.89455        -0.36644
C         31.66333        35.21998        -0.24586
C         32.92200        37.32197        -0.55209
C         31.71814        38.05853        -0.63097
C         32.92201        40.18948        -0.84492
C         31.71179        39.49655        -0.64668
C         32.96860        41.62411        -0.83572
C         31.77778        42.34398        -0.49441
C         33.02645        44.53122        -0.99933
C         31.87633        43.81572        -0.37793
C         32.88570        45.96678        -1.46980
C         31.73241        46.71357        -0.84270
C         33.01476        48.87161        -1.27294
C         31.66950        48.16126        -1.26176
C         33.00843        50.29329        -1.30899
C         31.77646        51.04540        -1.25356
C         33.04327        53.10933        -1.56265
C         31.82840        52.43173        -1.44627
C         35.41188        18.64231         0.11244
C         35.36638        20.08058         0.55710
C         34.04310        20.80388         0.30958
C         35.29346        22.91872         0.58019
C         34.00120        22.20700         0.39466
C         35.29279        24.39299         0.80111
C         33.96917        25.10834         0.84494
C         35.27609        27.29465         0.48963
C         33.98251        26.61298         0.69960
C         35.26823        28.70399         0.36726
C         34.04475        29.44704         0.30713
C         35.33772        31.63829         0.38488
C         34.06815        30.87853         0.25967
C         35.38728        33.07041        -0.01729
C         34.18132        33.78399        -0.07281
C         35.39334        35.87549        -0.42398
C         34.15370        35.18298        -0.30025
C         35.40429        37.30812        -0.64689
C         34.18100        37.98689        -0.70861
C         35.46313        40.12420        -1.29205
C         34.14211        39.40261        -1.11195
C         35.41196        41.61175        -1.36766
C         34.16490        42.30784        -1.18807
C         35.43563        44.51773        -1.15260
C         34.18796        43.76192        -1.59179
C         35.38875        45.95029        -1.18608
C         34.21565        46.69423        -1.32103
C         35.46126        48.86381        -1.43850
C         34.22149        48.14270        -1.35786
C         35.47000        50.26227        -1.44413
C         34.25040        51.00247        -1.39870
C         35.53378        53.16384        -1.41253
C         34.26768        52.43241        -1.47848
C         35.57231        54.57942        -1.38984
C         37.82246        18.74739        -0.35241
C         36.57003        18.03540        -0.24863
C         37.78544        20.17932        -0.21537
C         36.57768        20.83189         0.06004
C         37.78212        23.03044         0.14027
C         36.48655        22.31506        -0.13187
C         37.75737        24.45079         0.30816
C         36.52440        25.14300         0.46971
C         37.69990        27.23888         0.02160
C         36.49331        26.55660         0.37382
C         37.65238        28.64106        -0.16957
C         36.49850        29.37750         0.12663
C         37.74266        31.50047        -0.45616
C         36.61044        30.83622         0.21076
C         37.90469        32.95988        -0.17393
C         36.62685        33.74836        -0.15449
C         37.86143        35.91917        -0.14724
C         36.60928        35.15074        -0.31772
C         37.87987        37.37065        -0.39568
C         36.66632        38.03931        -0.69597
C         37.86887        40.20207        -0.55671
C         36.70153        39.44461        -0.89200
C         37.83442        41.62318        -0.49671
C         36.72060        42.40146        -0.99756
C         37.73805        44.57353        -0.26459
C         36.60590        43.85696        -0.74831
C         37.87172        45.96431        -0.58185
C         36.71339        46.61842        -1.25487
C         37.98241        48.81273        -1.12517
C         36.74334        48.12353        -1.46665
C         38.05892        50.24661        -1.34683
C         36.74750        51.00590        -1.56071
C         37.98740        53.14842        -1.11509
C         36.75383        52.46308        -1.32988
C         37.99689        54.57547        -1.12011
C         36.77271        55.26022        -1.28617
C         40.28527        15.97410        -0.96559
C         39.13328        16.64208        -0.70843
C         40.22526        18.85731        -0.84984
C         39.04522        18.09245        -0.68324
C         40.23643        20.26469        -0.60062
C         39.01290        20.93781        -0.34850
C         40.24635        23.05463        -0.08593
C         39.00386        22.35243        -0.10859
C         40.29407        24.49822         0.36634
C         38.97805        25.18608         0.18100
C         40.16254        27.27924        -0.45918
C         38.95842        26.56198        -0.05638
C         39.92899        28.55263        -1.02539
C         38.76216        29.28747        -0.79745
C         40.68854        31.86422        -1.31801
C         38.67106        30.69887        -1.06674
C         40.52332        33.13163        -0.80012
C         39.23678        33.68685        -0.28301
C         40.41895        35.98197        -0.18069
C         39.17971        35.18473        -0.09932
C         40.33544        37.38864         0.00386
C         39.08593        38.08806        -0.18665
C         40.24400        40.24092         0.23445
C         39.07028        39.51414        -0.16118
C         40.18752        41.64976         0.43181
C         38.88219        42.31904         0.26387
C         40.08615        44.56677         0.76236
C         38.82197        43.83845         0.40211
C         40.15531        46.05186         0.40475
C         39.04038        46.67543        -0.33530
C         40.44637        48.82666        -0.53988
C         39.25471        47.99979        -1.06100
C         40.31100        50.28431        -0.33648
C         39.22176        50.99622        -0.82558
C         40.36722        53.14310        -0.38759
C         39.18884        52.42565        -0.78806
C         40.39452        54.57152        -0.48751
C         39.23991        55.29419        -0.90488
C         40.50412        57.37958        -0.73882
C         39.32726        56.69623        -1.04097
C         42.81226        16.04389        -1.32720
C         41.49345        16.67794        -1.41175
C         42.74823        18.92088        -1.16242
C         41.46466        18.22070        -1.31505
C         42.74055        20.30045        -0.79039
C         41.48069        20.98154        -0.56574
C         42.70512        23.10971        -0.01117
C         41.44980        22.37033        -0.27103
C         42.71330        24.58770        -0.11731
C         41.50798        25.28408        -0.12339
C         42.74605        27.44239        -0.41560
C         41.47963        26.69659        -0.38562
C         42.90176        28.86802        -0.58462
C         41.91042        29.70874        -1.18978
C         43.17570        31.81859        -0.83900
C         41.90393        31.10072        -1.16209
C         42.98992        33.20073        -0.28621
C         41.79086        33.96549        -0.77132
C         42.81976        36.00989         0.25091
C         41.65178        35.32557        -0.15856
C         42.74988        37.41450         0.49029
C         41.52377        38.11246         0.28412
C         42.63215        40.21214         0.90477
C         41.47473        39.53183         0.46241
C         42.52803        41.63868         1.22664
C         41.32530        42.39165         0.83568
C         42.58412        44.53378         1.03049
C         41.34929        43.81467         0.91927
C         42.61673        45.97378         0.81327
C         41.48808        46.66900         0.39083
C         42.68143        48.82875         0.78775
C         41.58993        48.10768         0.12064
C         42.56267        50.26704         0.99364
C         41.37186        51.01267         0.38073
C         42.67107        53.16448         0.53084
C         41.48967        52.45868         0.14339
C         42.68585        54.57407         0.43289
C         41.57182        55.27677        -0.09353
C         42.82767        57.40643         0.13861
C         41.62068        56.69866        -0.23637
C         43.95135        16.77968        -1.40400
C         45.20311        18.95562        -1.33015
C         43.95997        18.22861        -1.35124
C         45.20335        20.35145        -1.02061
C         43.97196        20.98537        -0.69029
C         45.23216        23.15986        -0.35889
C         44.00178        22.37292        -0.20608
C         45.19563        24.56179        -0.14126
C         43.95653        25.28753        -0.12831
C         45.21036        27.37743         0.14750
C         43.96209        26.70937        -0.13757
C         45.24709        28.81063         0.26200
C         44.10290        29.55580        -0.13039
C         45.28619        31.65218         0.45849
C         44.17245        30.97749        -0.09862
C         45.27990        33.10553         0.59014
C         44.07330        33.84992         0.26337
C         45.19028        35.97295         0.88966
C         44.03247        35.28536         0.48505
C         45.14958        37.40441         1.04339
C         43.92601        38.12016         0.86770
C         45.09655        40.25572         1.29345
C         43.87091        39.53274         1.07620
C         45.10846        41.67511         1.29824
C         43.85045        42.41879         1.42896
C         45.07292        44.54256         1.05978
C         43.82855        43.86174         1.16808
C         45.09129        45.97641         0.98346
C         43.87406        46.68396         0.90582
C         45.12466        48.81416         1.15842
C         43.88268        48.12099         0.97789
C         45.13835        50.26421         1.40361
C         43.80171        51.05011         1.31785
C         45.11006        53.15158         1.06424
C         43.85730        52.47386         1.00522
C         45.12874        54.57941         0.92091
C         43.81722        55.32152         1.09829
C         43.86442        56.77977         0.73132
C         47.63337        19.03185        -1.53787
C         46.44968        18.32889        -1.59855
C         47.66785        20.42136        -1.22925
C         46.43885        21.08741        -0.98628
C         47.65606        23.23919        -0.59465
C         46.43511        22.50226        -0.67022
C         47.65276        24.53833        -0.10536
C         46.42489        25.25518         0.05882
C         47.58561        27.29838         1.03634
C         46.40330        26.64635         0.33779
C         47.67809        28.78548         0.83266
C         46.45465        29.49692         0.62304
C         47.63562        31.56148         1.33751
C         46.43677        30.90181         0.79604
C         47.62082        33.08032         1.45548
C         46.40997        33.80122         1.00731
C         47.60452        35.91414         1.41427
C         46.41538        35.23869         1.09093
C         47.54710        37.36151         1.65908
C         46.32579        38.11760         1.36912
C         47.57517        40.26630         1.32109
C         46.33423        39.53795         1.37749
C         47.55914        41.68315         1.14374
C         46.32151        42.39512         1.17576
C         47.54545        44.53570         0.96263
C         46.31129        43.82869         1.08057
C         47.55961        45.96748         0.92767
C         46.33581        46.68337         0.97191
C         47.59143        48.83448         1.01747
C         46.34180        48.11770         1.03086
C         47.59144        50.25271         1.10272
C         46.39476        51.00303         1.21296
C         47.58236        53.17049         0.97307
C         46.36381        52.43196         1.13327
C         47.54784        54.54404         0.76185
C         46.33109        55.24692         0.76085
C         50.15332        20.50413        -1.25752
C         48.92585        21.13740        -1.16517
C         50.19484        23.29164        -0.67408
C         48.91436        22.64937        -1.17253
C         50.20418        24.58472        -0.17264
C         48.92939        25.18816         0.26591
C         50.18621        27.35570         0.79745
C         48.91801        26.57866         0.81498
C         50.15450        28.71474         1.05197
C         48.90295        29.44986         1.04457
C         50.14192        31.60528         1.33643
C         48.92988        30.86900         1.23038
C         50.10436        33.05208         1.45919
C         48.91742        33.78596         1.47003
C         50.06679        35.97937         1.43745
C         48.87106        35.23601         1.48948
C         50.08787        37.40005         1.27896
C         48.87837        38.15723         1.60025
C         50.01218        40.24677         0.91412
C         48.81634        39.58000         1.27287
C         50.00028        41.66936         0.77865
C         48.78047        42.38986         0.94158
C         50.00589        44.51712         0.69221
C         48.77563        43.81626         0.86800
C         50.02461        45.94900         0.69323
C         48.80333        46.67867         0.84068
C         50.07350        48.79362         0.74389
C         48.82188        48.10290         0.88175
C         50.11360        50.22009         0.79318
C         48.88853        50.94862         1.16043
C         50.11437        53.08326         0.54313
C         48.89053        52.47702         1.08125
C         51.37458        21.20999        -1.16516
C         52.67450        23.26618        -0.60208
C         51.42471        22.57274        -0.85321
C         52.66718        24.62263        -0.15750
C         51.42962        25.29587         0.11139
C         52.67705        27.33389         0.77154
C         51.42724        26.63819         0.58196
C         52.68872        28.74245         1.10148
C         51.40484        29.42878         1.50743
C         52.63929        31.62701         1.24240
C         51.39833        30.92787         1.29634
C         52.66506        33.07105         1.29877
C         51.39032        33.76029         1.62295
C         52.59453        36.03550         1.26503
C         51.34916        35.27945         1.60231
C         52.40035        37.26770         0.38954
C         51.22607        38.09371         0.84093
C         52.41036        40.20149         0.28244
C         51.22353        39.50629         0.69123
C         52.41213        41.62436         0.24498
C         51.21199        42.36250         0.50861
C         52.44666        44.48947         0.30556
C         51.21654        43.78898         0.50045
C         52.47710        45.91082         0.36282
C         51.26139        46.64117         0.54610
C         52.52629        48.77007         0.39038
C         51.28523        48.06946         0.56081
C         52.53183        50.19540         0.33670
C         51.30130        50.92355         0.54310
C         51.25050        52.35852         0.37609
C         55.11188        23.27695        -0.56033
C         53.91054        22.61926        -0.78804
C         55.14428        24.61939        -0.14811
C         53.90521        25.30232         0.06153
C         55.16615        27.28356         0.89028
C         53.88784        26.65134         0.52497
C         55.16429        28.75148         1.26836
C         53.87794        29.47250         1.16889
C         55.11139        31.63453         0.97915
C         53.87705        30.91568         1.17005
C         55.08154        33.06735         0.83613
C         53.85263        33.77933         1.11870
C         55.02852        35.99065         0.50154
C         53.86883        35.27036         1.12619
C         54.82926        37.33646        -0.09756
C         53.66198        38.04321         0.09969
C         54.77116        40.20010        -0.41264
C         53.60830        39.48348        -0.06027
C         54.80573        41.62280        -0.38927
C         53.61730        42.33304        -0.04874
C         54.86443        44.44929        -0.17253
C         53.63587        43.75670         0.01874
C         54.90948        45.85094         0.05951
C         53.72845        46.59723         0.25738
C         54.96398        48.75090         0.04337
C         53.75435        48.04581         0.26116
C         54.93785        50.15652        -0.05327
C         53.75811        50.86262         0.10563
C         57.64566        24.68942        -0.33439
C         56.41338        25.32279         0.00689
C         57.64463        27.40531         0.46447
C         56.42977        26.65057         0.45882
C         57.66440        28.80590         0.73717
C         56.47722        29.53040         1.35162
C         57.55110        31.66872         0.60709
C         56.35568        30.96387         0.88553
C         57.50503        33.07683         0.34161
C         56.26481        33.74648         0.47031
C         57.34922        35.77990        -0.61251
C         56.26567        35.21243         0.24613
C         57.24231        37.22955        -1.02411
C         55.95158        37.96701        -0.81043
C         57.23081        40.18738        -1.10119
C         55.94360        39.47681        -0.92823
C         57.22009        41.60378        -1.09778
C         56.00175        42.33377        -0.74034
C         57.25782        44.47347        -0.86061
C         56.02965        43.73577        -0.60936
C         57.38702        45.76902        -0.44721
C         56.22414        46.50713         0.07970
C         57.44286        48.62514        -0.66207
C         56.25874        48.03102         0.00758
C         58.83327        25.37632        -0.27485
C         60.06584        27.48992         0.01483
C         58.85614        26.75200         0.07813
C         60.05714        28.84851         0.22184
C         58.85331        29.53066         0.56124
C         59.98451        31.74740         0.43976
C         58.82067        30.99111         0.58254
C         59.93779        33.12203         0.17263
C         58.72214        33.79661         0.04062
C         59.77671        35.91626        -0.82246
C         58.67847        35.17193        -0.43930
C         59.68020        37.29544        -1.17467
C         58.48927        37.99759        -1.19979
C         59.60905        40.20050        -1.56118
C         58.43710        39.46263        -1.30283
C         59.58105        41.58934        -1.66118
C         58.40547        42.30883        -1.42691
C         59.64240        44.53287        -1.66247
C         58.32432        43.79917        -1.69532
C         59.80037        45.75393        -1.14251
C         58.71954        46.49152        -0.39985
C         58.56169        47.91838        -0.89246
O         34.75339        39.57057        -2.45159
O         38.80073        33.07552         0.99286
O         30.44897        48.73900         0.90523
O         53.52713        36.02195         2.36065
O         51.44552        34.55258         2.85994
O         33.02525        44.31960         0.43323
O         43.02695        41.98918         2.55464
O         28.11479        45.43189         1.66386
O         24.85817        46.39665        -1.20412
O         41.41323        50.64995         1.82755
O         55.55411        38.61865        -2.06576
O         36.93616        47.15538        -2.59119
O         57.02506        36.12583        -1.98919
O         38.37015        42.96663         1.49515
O         56.52657        47.32551         1.27263
O         36.31346        42.11719        -2.39720
O         30.32254        44.21432         1.39400
O         36.19073        31.35069         1.52592
O         38.49386        35.56655         1.13938
O         25.11554        35.67390         2.13834
O         41.30918        17.51478        -2.59308
O         49.06143        51.78659         2.35763
O         41.64403        48.51108        -1.36777
O         55.14961        27.71691         2.31242
O         32.24910        33.52339         1.43661
O         40.88048        29.08423        -1.89638
O         37.58335        50.63009        -2.70177
O         39.82157        45.58709         1.77115
O         29.59860        37.70253        -1.82905
O         28.29508        27.08466        -1.64445
O         43.41541        22.56066         1.15352
O         39.61418        31.22497        -1.94139
O         44.38770        50.67875         2.59831
O         49.00761        25.43354         1.73937
O         48.24786        37.79380         2.86214
O         33.80940        25.94888         2.02601
O         56.15863        36.01614         1.47719
O         29.82166        24.60564        -1.63154
O         47.40032        32.23322         2.63094
O         35.51544        23.43374         1.91525
O         51.36665        29.27112         2.98134
H         52.17240        29.69631         3.34650
O         34.14174        43.79146        -3.05071
H         34.93414        43.28827        -3.35838
O         31.78377        31.08730        -1.94312
H         31.23632        30.36340        -2.34476
O         43.80828        32.05673        -2.19059
H         43.85147        31.18712        -2.64546
O         26.33370        33.87165        -1.49496
H         27.13214        34.20784        -1.95690
O         31.18135        48.18435        -2.64264
H         31.69610        47.49822        -3.13870
O         40.47932        24.42698         1.82739
H         41.31719        23.94367         1.99909
O         48.85169        23.01601        -2.60856
H         49.60324        22.56632        -3.05121
O         56.79587        29.64452         2.77359
H         56.50033        28.80124         3.19027
O         52.00825        36.67711        -0.90360
H         52.01583        37.39206        -1.57556
O         43.53400        55.28773         2.54123
H         43.49330        54.34494         2.81184
O         35.47419        20.03983         2.03068
H         36.38429        19.75069         2.25427
O         59.13176        46.55483         0.99219
H         58.36381        46.92748         1.49188
O         57.84614        43.89356        -3.08139
H         57.79328        44.84458        -3.31287
O         42.08034        34.26920        -2.19555
H         42.69237        33.56507        -2.52574
O         30.31058        28.82337        -2.10068
H         29.52670        28.27022        -2.35870
O         47.26331        27.16494         2.45670
H         47.67494        26.31963         2.75683
O         32.57946        45.92381        -2.90530
H         33.23718        45.31046        -3.32582
O         36.18161        22.53650        -1.57029
H         36.88579        22.09303        -2.09029
O         39.54085        47.64713        -2.44682
H         40.49068        47.86620        -2.60754
H         22.19951        26.83997         1.50562
H         22.21041        29.29295         1.53977
H         22.20792        31.16883         1.53209
H         22.22374        33.61339         1.52018
H         22.13208        35.54862         0.62125
H         22.18260        37.96923         0.57049
H         22.21686        39.86709         0.83907
H         22.22359        42.28435         0.70050
H         22.27375        44.16715         0.88834
H         22.24963        46.59654         0.83627
H         25.35090        23.43656         0.48674
H         23.33872        24.70481         1.09304
H         25.61817        50.00766         0.31586
H         23.51157        48.81408         0.61624
H         26.93277        22.46130         0.16355
H         27.21765        50.92439        -0.27601
H         28.99805        21.21065         0.16689
H         29.24554        52.11935        -0.84809
H         32.82040        19.00749         0.11460
H         30.69762        20.20858        -0.03315
H         33.01740        54.20056        -1.67847
H         30.89982        53.01814        -1.45964
H         34.50497        18.02829         0.20846
H         34.64523        55.16150        -1.46871
H         36.54596        16.96393        -0.49296
H         36.75343        56.35802        -1.28705
H         40.33507        14.88341        -0.82974
H         38.25198        16.06172        -0.40299
H         40.54799        58.47105        -0.86377
H         38.46195        57.27156        -1.39589
H         42.86361        14.95258        -1.19796
H         42.87107        58.48905        -0.05502
H         44.91433        16.25167        -1.37745
H         44.72960        57.37075         1.06379
H         48.56791        18.49927        -1.75896
H         46.48402        17.26560        -1.86998
H         48.47943        55.11298         0.64655
H         46.35804        56.33800         0.64459
H         50.21086        19.41205        -1.36480
H         50.11155        54.14290         0.25242
H         52.30133        20.62865        -1.25460
H         52.14332        52.87829         0.00345
H         56.04308        22.71822        -0.71595
H         53.94472        21.57493        -1.12405
H         55.87308        50.71198        -0.20574
H         53.79775        51.95868         0.07290
H         57.65807        23.64130        -0.65819
H         57.37147        49.66226        -1.02281
H         59.77580        24.87925        -0.54535
H         60.99757        26.97174        -0.25295
H         60.99432        29.40853         0.10952
H         60.97063        31.26753         0.48887
H         60.88411        33.65698         0.01561
H         60.78524        35.48239        -0.77130
H         60.62949        37.82149        -1.34519
H         60.56222        39.68480        -1.73506
H         60.50920        42.11339        -1.92454
H         60.48615        44.07342        -2.19974
H         60.78240        46.24941        -1.19961
H         59.41641        48.39690        -1.39495
