         661
 CSIRO Nanostructure Databank - Neutral Graphene Oxide Data Set
C          5.75635        31.70301         0.09009
C          5.72770        33.06229        -0.00907
C          8.17660        27.44720         0.78507
C          8.18508        28.82263         0.64561
C          6.98084        29.56765         0.41847
C          8.22386        31.67652         0.31050
C          6.99243        30.95559         0.26858
C          8.25446        33.10751        -0.15991
C          6.93757        33.85369        -0.04088
C          8.17604        35.99185        -0.19707
C          6.93557        35.22289        -0.07201
C          8.17471        37.38857        -0.42121
C         10.74618        23.17210         1.19877
C         10.70670        24.56508         1.14074
C          9.48755        25.23969         0.94955
C         10.69101        27.36912         0.71389
C          9.41548        26.71255         1.23440
C         10.62894        28.86992         0.86340
C          9.44870        29.56664         0.75687
C         10.65450        31.76465         0.67786
C          9.44140        31.02347         0.61480
C         10.69106        33.18919         0.47194
C          9.36639        33.91874         0.50348
C         10.68305        35.92632        -0.49942
C          9.39136        35.29923        -0.08910
C         10.63657        37.43130        -0.48470
C          9.39838        38.13781        -0.45906
C         10.64860        40.28268        -0.42214
C          9.42196        39.55127        -0.44448
C         10.65671        41.69207        -0.31102
C         13.46898        19.15999         0.41042
C         13.31303        20.45294         1.01184
C         12.09246        21.10158         1.00876
C         13.22325        23.23341         1.61703
C         11.94450        22.42787         1.69932
C         13.20009        24.61503         1.58115
C         11.94505        25.33637         1.38648
C         13.15579        27.51160         1.64427
C         11.91791        26.70234         1.32982
C         13.16348        28.77137         0.69693
C         11.90499        29.56904         1.03319
C         13.21255        31.76856         0.81453
C         11.90462        31.06717         0.99311
C         13.17824        33.24524         0.54661
C         11.86555        33.90832         0.40831
C         13.14776        36.05238        -0.12854
C         11.85252        35.41741         0.36851
C         13.11389        37.35996        -0.54371
C         11.86284        38.13012        -0.52141
C         13.20314        40.25128        -0.35259
C         11.87944        39.53112        -0.49572
C         13.01722        41.66613        -0.96473
C         11.94977        42.45640        -0.16279
C         13.11719        44.64690        -0.60019
C         11.92587        43.93883        -0.46002
C         13.22756        46.05030        -0.45014
C         15.95114        15.05892        -0.86734
C         15.50016        16.08854        -0.05415
C         14.65599        17.19456        -0.28977
C         15.69601        18.84031         1.47070
C         14.60081        18.35824         0.54263
C         15.66906        20.30404         1.88256
C         14.48992        21.12434         1.53416
C         15.70879        23.25032         1.80494
C         14.47463        22.51310         1.69069
C         15.70751        24.62735         1.68357
C         14.45312        25.36402         1.58417
C         15.71230        27.54844         1.61780
C         14.44328        26.74015         1.52762
C         15.67831        28.88812         0.90427
C         14.44499        29.58254         0.81160
C         15.64188        31.64228         0.14617
C         14.41690        30.95448         0.55710
C         15.60391        33.12447        -0.12627
C         14.38204        33.93711         0.05211
C         15.63254        35.98588        -0.55938
C         14.38870        35.29481        -0.19085
C         15.62273        37.30678        -0.94874
C         14.34534        38.02844        -1.01539
C         15.71414        40.26161        -0.87847
C         14.37921        39.53016        -1.00794
C         15.58940        41.65267        -1.48689
C         14.30587        42.43643        -1.24913
C         15.67780        44.58127        -0.89913
C         14.34076        43.91695        -1.05074
C         15.70177        46.05753        -0.76646
C         14.47911        46.74520        -0.48339
C         15.79029        48.78139        -0.01557
C         14.54997        48.12916        -0.19311
C         15.84750        50.17298         0.31662
C         18.58296        10.95985        -1.54735
C         18.29919        11.99801        -0.49786
C         17.20991        12.96226        -0.90184
C         18.33864        14.94117         0.07176
C         17.10330        14.25184        -0.46684
C         18.37635        16.20402         0.82203
C         17.16025        16.84845         1.22256
C         18.28800        18.90827         1.79248
C         17.04005        18.18987         1.46078
C         18.25455        20.34060         2.23029
C         16.90574        21.07405         2.40478
C         18.19992        23.28303         2.39937
C         17.01339        22.47779         1.77872
C         18.18916        24.69683         1.83125
C         16.97482        25.35672         1.60050
C         18.16895        27.44889         1.06154
C         16.96670        26.75880         1.35574
C         18.15880        28.84353         0.71378
C         16.91710        29.55980         0.66067
C         18.14599        31.59617         0.04198
C         16.92791        30.93537         0.30794
C         18.17668        33.08142        -0.02861
C         16.88624        33.86950        -0.01082
C         18.11648        35.91800        -0.53255
C         16.89750        35.27380        -0.42910
C         18.12415        37.38061        -0.78230
C         16.89601        37.97393        -1.46147
C         18.12235        40.15369        -1.52061
C         16.94083        39.49555        -1.35445
C         18.16546        41.62942        -1.72005
C         16.86376        42.38845        -1.70163
C         18.19185        44.59089        -1.51855
C         16.92038        43.82854        -1.27115
C         18.19053        46.06483        -1.16480
C         16.93952        46.73117        -0.70379
C         18.31800        48.57579         0.29701
C         17.00061        48.05502        -0.23840
C         18.32758        50.08152         0.55670
C         17.05961        50.85622         0.50439
C         18.33743        52.99260         0.61585
C         17.11139        52.25437         0.64031
C         18.36336        54.39869         0.79292
C         21.33951         7.52390        -3.71977
C         21.21603         8.62786        -2.83971
C         19.96561         9.23531        -2.59506
C         21.00895        10.81079        -1.01605
C         19.82826        10.33469        -1.70123
C         20.92309        11.99374        -0.15116
C         19.58586        12.67490         0.00255
C         20.85871        14.78078         0.69737
C         19.64897        14.16344         0.11346
C         20.84664        16.15316         1.01359
C         19.59049        16.85746         1.08058
C         20.77185        18.93142         1.59995
C         19.57995        18.24254         1.46227
C         20.74200        20.43404         1.51198
C         19.49939        21.13674         2.04820
C         20.74705        23.22341         1.94787
C         19.50389        22.51801         2.12113
C         20.78452        24.68528         1.91139
C         19.41425        25.46998         1.81065
C         20.63103        27.40144         0.74516
C         19.42275        26.78225         1.16568
C         20.61078        28.75257         0.28979
C         19.37639        29.49010         0.36097
C         20.58457        31.53815        -0.44117
C         19.35375        30.88024         0.04555
C         20.57043        33.00407        -0.81132
C         19.37716        33.80415        -0.45214
C         20.64247        35.93517        -0.47790
C         19.35787        35.18906        -0.51040
C         20.69162        37.37604        -0.74860
C         19.41462        38.11366        -0.87641
C         20.68252        40.23055        -1.21911
C         19.45994        39.42119        -1.69258
C         20.67619        41.60677        -1.21941
C         19.46748        42.37565        -1.60387
C         20.65427        44.55064        -1.27336
C         19.46928        43.85186        -1.42509
C         20.66190        45.98175        -1.10160
C         19.49601        46.70359        -0.91036
C         20.71742        48.80775        -0.56981
C         19.53903        48.08398        -0.46534
C         20.81192        50.18074        -0.15365
C         19.61192        50.84485         0.40537
C         20.77792        53.02788         0.28192
C         19.56806        52.31579         0.38125
C         20.77908        54.43124         0.45253
C         19.57165        55.11646         0.75156
C         20.80011        57.18091         1.36068
C         19.63209        56.49242         1.21027
C         20.78652        58.43862         2.20497
C         23.98225         5.28233        -5.13934
C         22.72934         5.83408        -4.87497
C         23.77491         7.49371        -3.38984
C         22.59717         6.94631        -3.99740
C         23.67083         8.60699        -2.50887
C         22.39424         9.16558        -2.21570
C         23.46754        10.87509        -0.77153
C         22.27821        10.28011        -1.32351
C         23.38437        12.10625        -0.06965
C         22.16097        12.73473         0.15690
C         23.26096        14.70715         1.19643
C         22.08899        14.06539         0.72343
C         23.27162        16.08610         1.52322
C         22.05164        16.82651         1.38781
C         23.25123        18.91403         1.90199
C         22.03295        18.23279         1.60941
C         23.20612        20.35838         2.04053
C         22.02817        21.07191         1.95927
C         23.20085        23.24520         1.87271
C         21.99957        22.52710         1.95424
C         23.15211        24.52055         1.13832
C         21.92701        25.33930         1.25178
C         23.05976        27.20484         0.09978
C         21.86125        26.62513         0.75096
C         23.05625        28.64680        -0.35587
C         21.82847        29.44606        -0.09678
C         23.16241        31.57702        -0.29076
C         21.85593        30.80733        -0.30992
C         23.09929        32.95436        -0.87611
C         21.85820        33.74016        -1.16456
C         23.15911        35.92194        -0.90115
C         21.93445        35.16051        -0.60387
C         23.15197        37.30201        -0.96494
C         21.89480        38.03701        -0.93178
C         23.15369        40.14116        -1.04033
C         21.92065        39.48793        -1.04804
C         23.19922        41.60255        -0.91079
C         21.89536        42.37619        -0.92396
C         23.12321        44.49534        -1.33885
C         21.93589        43.83787        -1.21684
C         23.15069        45.98759        -1.62767
C         21.98464        46.68743        -0.91362
C         23.19568        48.87344        -1.29769
C         21.84840        48.14932        -1.37210
C         23.22564        50.29398        -0.78832
C         21.98297        50.92215        -0.27717
C         23.25327        52.99241         0.20537
C         22.02670        52.31909         0.06125
C         23.30531        54.39031         0.43989
C         22.04866        55.15925         0.36540
C         23.36272        57.17659         1.25516
C         22.06482        56.63274         0.82415
C         23.39827        58.56987         1.70629
C         22.08331        59.23469         2.19147
C         23.46680        60.92768         3.34398
C         22.23958        60.33116         3.14009
C         25.13457         5.80484        -4.55299
C         26.21057         7.45854        -3.06021
C         25.05693         6.91699        -3.66921
C         26.12699         8.56462        -2.18170
C         24.84799         9.15299        -1.90901
C         25.92062        10.78264        -0.41803
C         24.75484        10.27570        -1.03254
C         25.77272        11.80041         0.69226
C         24.66062        12.80807         0.34105
C         25.70796        14.48301         1.92817
C         24.42012        13.78378         1.49622
C         25.69571        15.96036         2.25094
C         24.46616        16.76974         1.95586
C         25.73449        18.86741         2.56795
C         24.45742        18.16480         2.10509
C         25.73742        20.33579         2.15746
C         24.45523        21.08483         2.48503
C         25.75935        23.25195         1.64670
C         24.49054        22.57051         2.08622
C         25.77162        24.71185         1.16535
C         24.42314        25.17805         0.65303
C         25.55225        27.22735        -0.22455
C         24.35834        26.59188         0.33032
C         25.55159        28.68915        -0.41096
C         24.36564        29.34718        -0.50694
C         25.64058        31.48132        -0.91423
C         24.30107        30.77776        -0.98067
C         25.60513        32.92430        -1.29422
C         24.37451        33.67752        -0.90001
C         25.67190        35.88450        -1.25255
C         24.42295        35.16837        -0.91240
C         25.64080        37.30822        -1.24894
C         24.40534        38.01773        -1.12456
C         25.64255        40.14032        -1.23889
C         24.40260        39.42607        -1.12320
C         25.63561        41.59840        -1.26909
C         24.45617        42.30327        -1.21629
C         25.59779        44.50074        -0.92232
C         24.43205        43.77355        -1.56181
C         25.64576        45.97900        -1.02065
C         24.45208        46.69109        -1.24609
C         25.68347        48.80212        -0.98178
C         24.46367        48.10293        -1.19030
C         25.68493        50.23322        -0.71346
C         24.51906        50.88808        -0.42253
C         25.78115        52.96842         0.24203
C         24.51123        52.17153         0.36714
C         25.76896        54.33625         0.62484
C         24.52604        55.04961         0.73722
C         25.81548        57.06903         1.46177
C         24.53974        56.43859         1.14026
C         25.84572        58.38338         1.97990
C         24.67062        59.13224         2.18530
C         24.66646        60.36842         2.85260
C         27.28187         9.10416        -1.56014
C         28.35322        10.74480        -0.04263
C         27.18530        10.18958        -0.67262
C         28.31028        11.89931         0.72462
C         27.04383        12.56721         1.02397
C         28.26940        14.44144         2.18875
C         27.00192        13.78652         1.64494
C         28.26731        15.95056         2.06751
C         27.02810        16.68894         2.52376
C         28.26500        18.87436         2.41011
C         26.98384        18.14003         2.08807
C         28.20823        20.30617         1.87755
C         26.87465        20.95507         1.74741
C         28.07334        22.97002         0.55246
C         26.87209        22.35075         1.20552
C         28.10865        24.43993         0.27719
C         26.92777        25.12185         0.26659
C         28.10276        27.16552        -0.87411
C         26.82181        26.45375        -0.39577
C         28.13146        28.66701        -0.59244
C         26.86637        29.41561        -0.19147
C         28.10840        31.57671        -0.72642
C         26.81502        30.84146        -0.69104
C         28.14021        33.01442        -1.11247
C         26.86202        33.70168        -1.47253
C         28.11763        35.89184        -1.49041
C         26.87570        35.19150        -1.40773
C         28.11085        37.30797        -1.46125
C         26.86807        38.02217        -1.38383
C         28.11250        40.16690        -1.79667
C         26.84747        39.44497        -1.39506
C         28.09541        41.62707        -1.42797
C         26.91937        42.29945        -1.26425
C         28.12929        44.49622        -0.77064
C         26.89326        43.72721        -0.85335
C         28.11165        45.89494        -0.60743
C         26.87312        46.65681        -0.81199
C         28.15790        48.78516        -0.61694
C         26.90489        48.07669        -0.83414
C         28.20452        50.15601        -0.49378
C         26.98636        50.99524        -0.79309
C         28.21267        53.02400         0.06082
C         26.97979        52.32900        -0.07998
C         28.22866        54.32039         0.55158
C         27.01415        55.01740         0.81415
C         27.01413        56.35766         1.26161
C         29.52752        12.54203         1.09863
C         30.73252        14.55759         1.66158
C         29.53135        13.81559         1.64050
C         30.72658        15.95316         1.75345
C         29.45867        16.66858         1.93535
C         30.66551        18.78346         1.50572
C         29.47597        18.09834         1.91811
C         30.65468        20.12547         1.13279
C         29.41731        20.92447         1.24724
C         30.62538        23.00460         0.68857
C         29.36183        22.18285         0.37575
C         30.62612        24.42042         0.14623
C         29.36250        25.12390        -0.06277
C         30.65754        27.12863        -0.81804
C         29.35860        26.44707        -0.44350
C         30.60705        28.64449        -0.77705
C         29.33489        29.35070        -0.68551
C         30.56150        31.48879        -0.92344
C         29.37453        30.80648        -0.78110
C         30.69983        32.90668        -1.47245
C         29.35566        33.66911        -1.74576
C         30.56953        35.82383        -1.25418
C         29.37977        35.15985        -1.42777
C         30.65942        37.30044        -1.52219
C         29.35395        38.04821        -1.39425
C         30.60873        40.15485        -1.11748
C         29.37236        39.43091        -1.37039
C         30.62220        41.55881        -1.05615
C         29.39652        42.32267        -1.35063
C         30.60173        44.32891        -0.29606
C         29.40411        43.79274        -0.98799
C         30.50815        45.84728         0.04219
C         29.33063        46.57595        -0.38446
C         30.63100        48.70171        -0.02471
C         29.46578        48.03086        -0.72147
C         30.59663        50.13657         0.05452
C         29.45261        50.84182        -0.23907
C         29.48554        52.34510        -0.38083
C         31.93211        16.66978         1.61166
C         33.14441        18.76828         1.24730
C         31.93861        18.05896         1.43147
C         33.15846        20.12665         0.86448
C         31.83525        20.67971         0.35773
C         33.12760        22.95932         0.20297
C         31.84033        22.20698         0.21624
C         33.09055        24.43701         0.31682
C         31.82139        25.10344         0.12648
C         33.10425        27.25100        -0.21229
C         31.78048        26.61707         0.08910
C         33.12270        28.59055        -0.90460
C         31.79974        29.33181        -0.79669
C         32.98722        31.50018        -0.57270
C         31.81623        30.78002        -0.77814
C         32.91735        32.95869        -0.18621
C         31.76039        33.71615        -0.77961
C         32.97025        35.84426        -0.54026
C         31.77829        35.10377        -0.87276
C         33.01344        37.27852        -0.57546
C         31.82471        37.99907        -0.86943
C         33.04124        40.10838        -0.57716
C         31.81178        39.40386        -0.81652
C         33.02689        41.48646        -0.84044
C         31.85065        42.28376        -0.82105
C         33.03890        44.36401         0.15136
C         31.90135        43.66248        -0.43107
C         32.92649        45.78875         0.42095
C         31.78800        46.54240         0.24876
C         31.74913        47.98103         0.32869
C         34.34421        20.85908         0.79619
C         35.55342        23.00422         0.63329
C         34.39585        22.25802         0.50470
C         35.55394        24.45042         0.57412
C         34.27507        25.13996         0.39328
C         35.49015        27.29141         0.31183
C         34.28756        26.58298         0.16002
C         35.44567        28.73925         0.16425
C         34.28485        29.41364        -0.40724
C         35.46072        31.56438        -0.24011
C         34.25135        30.81902        -0.38238
C         35.45733        32.98522        -0.26790
C         34.22436        33.69099        -0.34793
C         35.40861        35.80868        -0.23836
C         34.18485        35.09989        -0.33330
C         35.37839        37.21191         0.23660
C         34.20753        38.00703        -0.20284
C         35.40088        40.09300         0.45493
C         34.23912        39.40794        -0.15754
C         35.38372        41.50331         0.84272
C         34.67384        42.47228         0.17358
C         34.24564        43.77498         0.57185
C         36.71352        25.16774         0.74874
C         37.98595        27.36233         0.52828
C         36.70564        26.66035         0.93357
C         38.02070        28.71024         0.28369
C         36.75890        29.49871         0.22441
C         38.00066        31.65461        -0.01361
C         36.78117        30.85789        -0.44241
C         37.98225        33.05285        -0.00950
C         36.70566        33.70776        -0.28338
C         38.32992        36.13491         0.51677
C         36.59775        35.10377        -0.41866
C         37.88243        37.23503         1.18241
C         36.57311        37.90406         0.86512
C         36.49755        39.36944         0.88507
C         39.22253        29.49564         0.24502
C         40.40250        31.62541         0.53868
C         39.19860        30.89212         0.23689
C         40.36525        32.97315         0.70968
C         39.17902        33.77304         0.47332
C         39.28816        35.10917         0.85857
O         14.10445        43.35397        -2.38329
O         29.13168        33.71140        -3.13800
O         16.51434        43.93511         0.14178
O         26.12545        33.18420        -2.63645
O         20.31198        32.00310        -1.85418
O         18.93031        41.98355        -2.92185
O         22.03416        56.26714        -0.59189
O         13.11896        28.35081        -0.62706
O         20.10891        11.93727         1.13689
O         23.21269        49.98300        -2.24734
O         22.60777        59.48249         0.86393
O         34.23387        42.11492        -1.12262
O         15.25423        19.22765         2.81142
O         25.51280        14.94541         3.31082
O         18.35800        19.29519         3.26048
O         29.08414        21.21618         2.67906
O         30.26492        44.79462         1.03752
O         25.86891        26.43454        -1.52357
O         17.60786        33.62964         1.23510
O         14.15805        38.85607        -2.25069
O         19.67924        39.07080        -3.01952
O         21.40971        35.44808         0.71192
O         28.20622        32.67082         0.30184
O         22.55349        42.06895         0.34797
O         16.06318        41.91519        -2.83076
O         23.66425        24.31281        -0.25765
O         26.99471        22.34944        -0.26157
O         22.82030        27.58931        -1.33437
O         25.43986        23.22291         3.06716
O         35.51478        37.28695         1.72190
O         19.27638        14.92043        -1.08274
O         26.01997        43.95798         0.34327
O         13.42885        32.73507         1.92875
O         32.41620        22.58297        -1.06188
O         37.72212        35.86798        -0.72890
O         35.96020        29.43727         1.40975
O         29.61231        43.36636        -2.37512
O         15.53051        32.20840        -1.26086
O         24.60020        34.40792         0.40272
O         16.02470        16.05037         1.25535
O         19.15036        50.35702         1.74499
O         11.91047        30.32739         2.29470
O         18.61641        38.17833         0.35229
O         18.08618        45.59350        -2.56636
O         20.22338        25.38684         3.03719
O         31.68569        20.12041        -0.98136
H         31.95367        20.83060        -1.61182
O         16.68402        21.21839         3.82111
H         16.74846        20.30943         4.19780
O         11.69523        22.14807         3.13090
H         12.47199        21.65181         3.46833
O         18.04343        23.45669         3.81465
H         17.67820        22.61924         4.19481
O         32.67311        32.94828         1.27364
H         33.44903        32.52263         1.69768
O         28.14615        27.06690        -2.33958
H         27.22028        26.85922        -2.62793
O         26.95055        29.51406         1.27490
H         27.60549        30.21279         1.49218
O         23.96453        13.01758         2.64877
H         24.13961        13.58672         3.43630
O         28.28941        14.17841         3.62657
H         27.67991        14.83620         4.04997
O         10.99410        35.47831        -1.85450
H         10.20503        35.62925        -2.41617
O         22.31943        46.67310         0.49375
H         21.51585        46.89411         1.01028
O         26.01034        25.55548         2.33071
H         25.78987        25.01906         3.13098
O         30.78953        23.18284         2.12049
H         30.08281        22.70813         2.61478
O         28.13812        40.13368        -3.26800
H         28.04737        39.19617        -3.54394
O         12.42866        41.39903        -2.25583
H         12.71087        42.12152        -2.86376
O         24.48411        51.71920         1.77634
H         24.47145        52.52019         2.34259
O         28.44195        19.00619         3.87646
H         29.05115        19.76918         4.01035
O         21.82924        33.97510        -2.60750
H         21.56760        33.12321        -3.02755
O         29.63824        52.62618        -1.79635
H         30.38055        52.08337        -2.13570
O         36.92805        30.59519        -1.87295
H         36.84968        31.44917        -2.34782
O         16.98163        37.61848        -2.86126
H         16.32436        38.15414        -3.35494
O          9.45540        26.84754         2.69713
H          8.67845        26.37941         3.06853
O         15.82825        27.97844         3.02851
H         14.90175        28.12022         3.35697
O         24.35389        21.07825         3.93308
H         24.99752        21.73933         4.27301
O         36.59724        26.89231         2.39221
H         36.44424        27.86191         2.50308
O         17.72781        11.24469         0.62201
H         18.48831        10.98465         1.19624
O         15.97024        40.54310         0.52159
H         16.06007        39.69899         1.01148
O         24.68168        43.87370        -3.01123
H         24.06916        43.26067        -3.47190
O         27.20390        16.65731         3.98110
H         26.53752        17.30090         4.34269
O         25.12133        13.60979        -0.77443
H         25.21661        13.02454        -1.55518
O         30.96147        26.73899        -2.18738
H         30.11934        26.83164        -2.69551
O         23.00516        46.14027        -3.05478
H         23.69267        45.57394        -3.47538
O         12.28357        42.44494         1.28538
H         11.57899        42.94404         1.75042
O         23.90585        30.72727        -2.37360
H         24.60382        30.26960        -2.88722
O         23.50296        31.71827         1.12301
H         23.87513        32.61833         1.27209
O         20.48651        58.03737         3.55194
H         20.40650        58.83910         4.10797
O         13.52833        40.21229         1.05029
H         12.98221        40.88475         1.52586
O         31.41343        27.04796         1.44188
H         32.02427        26.61534         2.07549
O         25.41952        10.99668         1.84125
H         24.91907        11.57117         2.47536
O         18.42678        47.91612         1.60099
H         18.85513        48.57049         2.20464
O         27.11938        51.33771        -2.21614
H         27.94364        51.87914        -2.30790
O         20.67535        20.67161         0.04885
H         20.80954        21.63243        -0.10230
O         10.78685        27.11178        -0.70654
H         11.66851        27.51997        -0.98108
O          9.01255        34.08141         1.90346
H          9.68849        34.67378         2.30323
O         25.72262        18.83544         4.03421
H         26.58790        19.22736         4.31562
O         21.40863        48.16291        -2.73980
H         21.81375        48.95120        -3.16701
O         29.82207        48.07380        -2.15866
H         29.02702        47.80787        -2.66912
O         31.33067        32.71913        -2.76995
H         30.64972        33.09168        -3.41811
O         30.98505        37.39117        -2.96568
H         30.94178        38.33766        -3.22233
O         11.58217        35.87454         1.72423
H         12.29828        35.53737         2.30427
O         13.10746        27.98081         3.02067
H         12.46244        28.72270         3.09985
O         17.33037        22.23371         0.38127
H         17.21521        23.07131        -0.11518
O          8.59667        33.05880        -1.57784
H          7.93947        32.48795        -2.02872
O         29.45275        21.80194        -1.00427
H         28.53671        21.66357        -1.33563
O         33.33662        28.30415        -2.33011
H         32.56962        27.74853        -2.61963
H          4.81310        31.13680         0.09510
H          4.76118        33.58586        -0.06811
H          7.21886        26.90351         0.74032
H          6.02490        29.02552         0.35763
H          5.98123        35.77223        -0.05337
H          7.21694        37.92576        -0.48439
H          9.81850        22.60037         1.03746
H          8.56594        24.65601         0.79038
H          8.47099        40.10313        -0.40180
H          9.69733        42.22678        -0.22675
H         12.62865        18.78101        -0.19123
H         11.20154        20.59624         0.60707
H         11.00965        44.49392        -0.19778
H         12.32471        46.62601        -0.19591
H         15.45941        14.83610        -1.82573
H         13.97040        17.16347        -1.15093
H         13.62061        48.68986        -0.01548
H         14.90661        50.74267         0.34916
H         17.72048        10.54581        -2.09166
H         16.34831        12.51221        -1.41898
H         16.16539        52.81411         0.69423
H         17.42711        54.92912         1.02150
H         20.43740         7.11249        -4.19611
H         19.07237         8.85515        -3.11228
H         18.70323        56.92962         1.60786
H         19.95609        59.11199         1.83845
H         24.06281         4.42254        -5.81934
H         21.82954         5.41142        -5.34418
H         23.53072        61.80568         4.00287
H         21.36577        60.66169         3.72217
H         26.11573         5.35868        -4.76906
H         27.19344         7.01112        -3.27032
H         26.81500        58.81978         2.26425
H         25.62520        60.82511         3.13662
H         28.26402         8.65142        -1.76063
H         29.32854        10.28025        -0.25238
H         29.18611        54.84497         0.68846
H         27.97356        56.86026         1.45431
H         30.47997        12.09179         0.77727
H         31.67865        14.04380         1.42972
H         31.51142        50.67235         0.35435
H         30.37079        52.77038         0.17104
H         32.87861        16.11229         1.54777
H         34.09840        18.24062         1.40280
H         33.85952        46.31033         0.68592
H         32.64837        48.51003         0.68122
H         35.28403        20.36063         1.08307
H         36.50010        22.49607         0.87252
H         35.89865        41.76628         1.77885
H         34.87280        44.34703         1.27331
H         37.66372        24.63287         0.89983
H         38.93222        26.80856         0.63050
H         38.34101        37.51833         2.14191
H         37.35562        39.91832         1.30253
H         40.18458        28.98352         0.39810
H         41.33573        31.06742         0.70203
H         41.27929        33.50524         1.01321
H         40.18617        35.39764         1.42891
