         640
 CSIRO Nanostructure Databank - Neutral Graphene Oxide Data Set
C         23.09048        27.52553        -0.51473
C         23.06666        28.84602        -0.08902
C         23.05808        31.66530         0.73613
C         23.03961        33.03045         0.99371
C         22.99041        35.94345         1.42448
C         22.97122        37.28835         1.59032
C         22.97858        40.15043         0.88238
C         22.94755        41.57706         0.69620
C         22.84741        44.52638         0.19484
C         22.88272        45.84915        -0.09696
C         25.50029        24.89047        -1.59183
C         24.34922        25.47872        -1.18976
C         25.51280        27.48811        -0.30369
C         24.31071        26.83481        -0.66218
C         25.48220        28.81334         0.17425
C         24.25830        29.53218         0.25394
C         25.50192        31.63945         0.87769
C         24.25881        30.94012         0.63225
C         25.49618        33.08015         1.08358
C         24.23255        33.78323         1.12504
C         25.45081        35.93766         1.25753
C         24.21748        35.19511         1.29517
C         25.43238        37.32044         1.23263
C         24.23147        38.09954         1.66634
C         25.42251        40.17472         0.84208
C         24.16072        39.46803         1.00480
C         25.37769        41.57840         0.26485
C         24.08786        42.30784         0.55203
C         25.38928        44.52304         0.40475
C         24.07161        43.79331         0.56425
C         25.36026        45.92118        -0.05592
C         24.12580        46.58376        -0.20621
C         25.30896        48.62904        -0.77166
C         24.12182        47.95170        -0.57257
C         28.21214        23.57542        -2.22666
C         28.13208        24.99597        -1.85591
C         26.78247        25.62984        -1.51771
C         28.08518        27.42705        -0.18127
C         26.79327        26.76339        -0.52509
C         28.04872        28.78256         0.46972
C         26.71679        29.47745         0.63816
C         27.97138        31.56293         1.24686
C         26.70606        30.93089         0.86165
C         27.96494        33.09466         1.41680
C         26.69805        33.79798         1.20620
C         27.93363        35.93529         1.38276
C         26.73190        35.23421         1.23088
C         27.88162        37.43631         1.65973
C         26.70957        38.04201         0.89466
C         27.89219        40.32249         1.26039
C         26.62257        39.54106         1.00353
C         27.90439        41.67549         0.58669
C         26.65919        42.36174         0.42767
C         27.84056        44.46625        -0.01153
C         26.64835        43.75986         0.23475
C         27.83628        45.87887        -0.20437
C         26.58296        46.59689        -0.29459
C         27.81283        48.68002        -0.82280
C         26.56186        47.97551        -0.64234
C         27.84199        50.04026        -1.21240
C         30.58877        23.48163        -1.61108
C         29.35877        22.86991        -2.07181
C         30.54805        24.88981        -1.25095
C         29.37240        25.61440        -1.33493
C         30.56448        27.60044        -0.31861
C         29.32224        27.08868        -1.00798
C         30.51498        28.94228         0.21931
C         29.29090        29.59119         0.46383
C         30.45687        31.69301         0.97860
C         29.25970        30.93680         0.89462
C         30.44527        33.12543         1.18766
C         29.22877        33.83007         1.27965
C         30.42840        35.96477         1.39898
C         29.20363        35.25481         1.35487
C         30.43234        37.44446         1.69155
C         29.16325        38.17289         1.33827
C         30.40869        40.25784         0.89084
C         29.17082        39.52363         1.10082
C         30.38388        41.63655         0.52528
C         29.11742        42.31849         0.35409
C         30.34779        44.47261        -0.09644
C         29.09148        43.67534        -0.30804
C         30.30137        45.85865        -0.18068
C         29.06292        46.58408        -0.32897
C         30.25921        48.74542        -0.69086
C         29.04914        48.00266        -0.59406
C         30.26852        50.10518        -1.05786
C         29.03116        50.73250        -1.34251
C         33.03432        20.68356        -1.87264
C         31.85936        21.33609        -1.75355
C         33.04233        23.45880        -1.27483
C         31.79539        22.77618        -1.56909
C         32.99442        24.83942        -0.88321
C         31.78748        25.52782        -0.82231
C         32.92711        27.42791         0.42658
C         31.73849        26.88438        -0.32712
C         32.95772        28.93279         0.49018
C         31.73391        29.63418         0.50835
C         32.93442        31.73330         0.97359
C         31.70522        31.02844         0.81258
C         32.92248        33.15472         1.15449
C         31.67868        33.84891         1.21083
C         32.91163        35.99546         1.35813
C         31.66204        35.27454         1.33137
C         32.88011        37.43543         1.29086
C         31.69212        38.13884         1.25209
C         32.85972        40.25330         0.69775
C         31.66319        39.56753         0.96947
C         32.86598        41.64615         0.38440
C         31.60534        42.33896         0.28562
C         32.81119        44.45433        -0.12836
C         31.59759        43.76178         0.02956
C         32.83122        45.86572        -0.28557
C         31.56731        46.61092        -0.09452
C         32.77131        48.75021        -0.83636
C         31.54095        48.09656        -0.36548
C         32.78087        50.12528        -1.08216
C         31.52865        50.84893        -1.10242
C         32.77937        52.94162        -1.11932
C         31.55614        52.23536        -1.15013
C         35.61189        19.26247        -1.98925
C         35.54983        20.60509        -1.62926
C         34.33801        21.43001        -2.00954
C         35.48145        23.38798        -0.84163
C         34.27035        22.78003        -1.33275
C         35.49117        24.74608        -0.46648
C         34.29768        25.59712        -0.81358
C         35.41647        27.49996         0.34803
C         34.23575        26.85514        -0.00862
C         35.40813        28.88929         0.73189
C         34.16880        29.61073         0.72286
C         35.40059        31.72248         1.10860
C         34.16292        31.02609         0.93326
C         35.39152        33.14843         1.20745
C         34.15377        33.86596         1.23229
C         35.40768        36.00623         1.26364
C         34.14235        35.29660         1.31388
C         35.41903        37.42232         1.15306
C         34.16326        38.22252         1.38147
C         35.39930        40.26756         0.67947
C         34.13332        39.46420         0.50293
C         35.37166        41.68706         0.44326
C         34.10159        42.32212         0.19852
C         35.32246        44.52976        -0.10044
C         34.09527        43.70448        -0.38206
C         35.29976        45.87600        -0.40724
C         34.02182        46.54091        -0.57298
C         35.30351        48.71295        -1.13102
C         33.97727        47.95096        -0.99315
C         35.26898        50.17138        -1.06592
C         34.03590        50.85242        -1.14519
C         35.26769        53.06810        -0.86135
C         33.99772        52.28567        -1.11278
C         35.32643        54.40676        -1.55223
C         37.86579        19.03756        -1.08467
C         36.74595        18.48710        -1.71307
C         37.84225        20.42159        -0.73483
C         36.68113        21.20522        -1.01073
C         37.83514        23.19571        -0.11883
C         36.67135        22.59983        -0.66699
C         37.83538        24.58128         0.23034
C         36.66089        25.36176         0.04980
C         37.81607        27.42784         0.83670
C         36.65871        26.77568         0.35811
C         37.83255        28.81934         1.08503
C         36.62357        29.56404         0.99426
C         37.85890        31.70520         1.29153
C         36.62260        30.99915         1.15735
C         37.84178        33.12476         1.33910
C         36.63501        33.84625         1.28958
C         37.87378        36.00249         1.19538
C         36.63370        35.29432         1.26787
C         37.86309        37.43084         1.01878
C         36.61413        38.12933         0.97723
C         37.85525        40.28057         0.81890
C         36.61361        39.57883         0.84600
C         37.84876        41.77928         0.93842
C         36.56707        42.42161         0.47810
C         37.83772        44.58302         0.07558
C         36.54798        43.92505         0.52827
C         37.80623        45.94524        -0.26763
C         36.54751        46.63699        -0.46181
C         37.76021        48.73021        -0.90814
C         36.54383        47.99763        -0.77446
C         37.76286        50.13998        -1.07302
C         36.52651        50.88063        -1.03569
C         37.76795        53.00044        -1.17979
C         36.53691        52.28155        -1.08442
C         37.76581        54.41201        -1.36114
C         36.50512        55.05370        -1.68570
C         40.24988        16.09551        -1.08690
C         39.10817        16.84339        -1.20665
C         40.18497        18.82100        -0.25492
C         39.07533        18.24204        -0.82979
C         40.14841        20.20010         0.34863
C         38.98509        21.03964        -0.12626
C         40.20961        22.99389         0.83541
C         39.00000        22.39747         0.13653
C         40.25515        24.49872         0.75933
C         39.04984        25.19983         0.68822
C         40.37968        27.35942         1.14317
C         39.01503        26.60841         1.07473
C         40.34304        28.82403         1.06430
C         39.09622        29.51146         1.56830
C         40.33264        31.68490         1.16541
C         39.10009        30.99621         1.30398
C         40.36653        33.11428         1.21048
C         39.12228        33.84595         1.64759
C         40.33502        35.96696         1.15644
C         39.10678        35.29490         1.24343
C         40.31958        37.43755         1.22457
C         39.06710        38.16063         0.99263
C         40.32891        40.29833         0.66331
C         39.07853        39.58494         0.86253
C         40.29858        41.71189         0.34516
C         39.09149        42.44487         0.38948
C         40.30494        44.49753        -0.21646
C         39.07968        43.83973         0.09376
C         40.35306        46.00669        -0.23390
C         39.02782        46.66092        -0.54761
C         40.13892        48.68996        -1.57260
C         38.99363        48.00041        -0.88263
C         40.24201        50.16489        -1.23946
C         39.01565        50.85753        -1.13984
C         40.23358        53.00101        -1.12616
C         39.00719        52.28735        -1.14368
C         40.22111        54.43060        -1.14603
C         38.99262        55.13844        -1.30947
C         40.20918        57.25693        -1.24897
C         39.02858        56.56792        -1.37226
C         42.67175        15.99849        -0.66077
C         41.45732        16.67059        -0.59938
C         42.69867        18.79301        -0.05402
C         41.41043        18.01180         0.08165
C         42.70038        20.19576         0.05124
C         41.47532        20.93855         0.21925
C         42.73130        23.04825         0.35728
C         41.49281        22.30900         0.40220
C         42.73893        24.46152         0.47192
C         41.51121        25.19750         0.70572
C         42.64497        27.35832         0.04438
C         41.53076        26.60140         0.70477
C         42.73024        28.81654         0.47787
C         41.51707        29.52859         0.79427
C         42.78584        31.66107         0.81850
C         41.55226        30.96505         0.93140
C         42.80978        33.09948         0.88914
C         41.57145        33.81853         1.06171
C         42.80057        35.97594         0.86672
C         41.57604        35.26788         1.07579
C         42.83074        37.39858         0.76192
C         41.62289        38.18905         1.04961
C         42.77199        40.25904         0.31811
C         41.55169        39.60563         0.64283
C         42.75480        41.65895         0.03527
C         41.52233        42.37687         0.01064
C         42.76687        44.45550        -0.57046
C         41.52158        43.78312        -0.26432
C         42.76188        45.87242        -0.93736
C         41.52820        46.56514        -1.00034
C         42.75417        48.74267        -1.55300
C         41.45692        47.93141        -1.52655
C         42.74241        50.18544        -1.27279
C         41.48165        50.86621        -1.21533
C         42.69426        53.00387        -0.89365
C         41.47248        52.29211        -1.07255
C         42.67905        54.43890        -0.84265
C         41.44952        55.14469        -1.02476
C         42.66711        57.26650        -0.89762
C         41.44438        56.56762        -1.05845
C         43.87508        16.66316        -0.37763
C         45.17902        18.77366        -0.14549
C         43.91458        18.05793        -0.17004
C         45.19798        20.18166        -0.02822
C         43.95111        20.92183         0.07058
C         45.25353        23.03901         0.45931
C         43.95262        22.31653         0.19761
C         45.22305        24.50619         0.11658
C         43.96911        25.21510         0.27661
C         45.16189        27.36739        -0.27393
C         43.93838        26.59301         0.12090
C         45.19536        28.72893         0.38995
C         43.93414        29.50550         0.45911
C         45.25075        31.63045         0.55500
C         43.99803        30.92888         0.63926
C         45.26107        33.06134         0.63031
C         44.03308        33.79592         0.78688
C         45.23639        35.95073         0.55827
C         44.03533        35.24722         0.74170
C         45.24809        37.36192         0.35059
C         44.01479        38.08929         0.44019
C         45.22423        40.22118         0.11220
C         44.00575        39.52743         0.28751
C         45.22341        41.64634        -0.04179
C         43.98281        42.34897        -0.17237
C         45.26139        44.36479        -0.84952
C         43.96666        43.73299        -0.52220
C         45.27983        45.85546        -1.17737
C         43.98353        46.54798        -1.19430
C         45.31317        48.76556        -1.11047
C         44.02886        47.98258        -1.42274
C         45.19945        50.18769        -0.76240
C         43.94643        50.87087        -0.93333
C         45.11739        53.00669        -0.40808
C         43.91638        52.29350        -0.73498
C         45.10550        54.43532        -0.36782
C         43.88190        55.16191        -0.63766
C         43.84597        56.58246        -0.67995
C         47.61438        18.74139        -0.31242
C         46.41200        18.07518        -0.25786
C         47.66680        20.15830        -0.25226
C         46.45219        20.87604        -0.07341
C         47.66888        22.99142        -0.24584
C         46.48157        22.30818        -0.03155
C         47.64414        24.45678        -0.58698
C         46.40790        25.19221        -0.13631
C         47.68435        27.31403        -0.14344
C         46.45260        26.61272        -0.14531
C         47.72060        28.73144        -0.01940
C         46.49861        29.45779         0.38078
C         47.68844        31.61783         0.15392
C         46.48053        30.93031         0.37132
C         47.67536        33.04148         0.24497
C         46.49899        33.74977         0.50841
C         47.72131        35.96276         0.21828
C         46.53891        35.23459         0.80603
C         47.70217        37.31897        -0.00609
C         46.46459        38.06022         0.08414
C         47.68218        40.20036        -0.07193
C         46.47142        39.49083         0.00774
C         47.70102        41.63180         0.23199
C         46.44765        42.37150        -0.00694
C         47.69825        44.48573        -0.31470
C         46.49650        43.74052        -0.33706
C         47.70815        45.88063        -0.54281
C         46.51079        46.60457        -0.83529
C         47.64102        48.72296        -0.25593
C         46.49247        47.99754        -0.69414
C         47.55459        50.11415        -0.02561
C         46.34451        50.84903        -0.25374
C         47.48718        53.01738         0.25143
C         46.32108        52.29366        -0.10520
C         47.45693        54.42235         0.25926
C         46.29707        55.11687        -0.04636
C         50.16143        20.19509        -0.46729
C         48.91705        20.87145        -0.35429
C         50.15162        23.01407        -0.45431
C         48.91376        22.29079        -0.37636
C         50.15494        24.45980        -0.38048
C         48.93972        25.17708        -0.31656
C         50.17511        27.28701        -0.19315
C         48.93650        26.58198        -0.21226
C         50.17980        28.73759        -0.12724
C         48.93765        29.44719        -0.06542
C         50.17212        31.55493        -0.14887
C         48.94279        30.88550        -0.02756
C         50.17208        33.01349        -0.37848
C         48.91261        33.76977        -0.10628
C         50.28783        35.93495         0.00110
C         48.99652        35.22150         0.21754
C         50.26570        37.38333        -0.26607
C         48.95040        38.02096        -0.40484
C         50.23853        40.25730        -0.31990
C         48.94164        39.54623        -0.41523
C         50.25092        41.64080        -0.15726
C         49.01843        42.36379         0.22461
C         50.15429        44.46512        -0.67049
C         49.00984        43.88600         0.18049
C         50.19530        45.95346        -0.40493
C         48.94403        46.62500        -0.36507
C         50.10198        48.73120         0.12775
C         48.89202        48.02071        -0.14363
C         50.05909        50.12088         0.42976
C         48.74675        50.78856         0.52314
C         50.03078        52.97910         0.65785
C         48.72267        52.30791         0.66714
C         51.34563        20.89115        -0.55947
C         52.63881        23.03637        -0.53824
C         51.37709        22.31262        -0.53263
C         52.64917        24.44747        -0.46042
C         51.39690        25.16919        -0.38444
C         52.66100        27.35900        -0.53474
C         51.38649        26.57740        -0.31310
C         52.65099        28.65797         0.25841
C         51.39218        29.43750        -0.03000
C         52.67471        31.54071         0.08005
C         51.41793        30.85034        -0.05772
C         52.64988        33.00722         0.16845
C         51.51641        33.70426        -0.54756
C         52.71736        35.88016        -0.33951
C         51.52395        35.19257        -0.29977
C         52.72090        37.33403        -0.75950
C         51.44189        38.08775        -0.45876
C         52.71265        40.22549        -0.48946
C         51.46519        39.52803        -0.48645
C         52.73147        41.64507        -0.46319
C         51.48096        42.37731        -0.33860
C         52.70459        44.53155        -0.74794
C         51.46069        43.75910        -0.43009
C         52.67228        45.95376        -0.23820
C         51.40120        46.64539        -0.21381
C         52.54582        48.77570         0.33737
C         51.35128        48.05114         0.08647
C         52.50373        50.14040         0.68339
C         51.24366        50.83633         0.67861
C         51.19057        52.28040         0.75947
C         55.08366        23.02013        -0.50670
C         53.88237        22.34759        -0.57903
C         55.13225        24.43321        -0.39527
C         53.90192        25.15484        -0.39292
C         55.12703        27.27638        -0.11704
C         53.92413        26.57378        -0.28605
C         55.13571        28.72753         0.01220
C         53.93496        29.43718         0.08240
C         55.17272        31.59005         0.18901
C         53.91177        30.86278         0.15524
C         55.20437        33.01255         0.16036
C         53.95311        33.77388         0.20025
C         55.18763        35.88678        -0.21141
C         53.96669        35.19089        -0.20595
C         55.18667        37.34158        -0.26899
C         53.98058        38.06291        -0.39290
C         55.19438        40.16619        -0.30261
C         53.96984        39.47734        -0.41268
C         55.26456        41.63570        -0.63865
C         53.95580        42.38164        -0.49285
C         55.16223        44.52952        -0.15009
C         53.97453        43.78450        -0.42876
C         55.12322        45.90999         0.11665
C         53.85787        46.61508         0.03753
C         55.09707        48.80075         0.67030
C         53.83746        48.08528         0.18902
C         54.89017        50.11839         1.28769
C         53.70167        50.77020         1.19159
C         57.63497        24.48608        -0.38567
C         56.38354        25.15056        -0.30523
C         57.59896        27.28902        -0.02832
C         56.36943        26.56610        -0.14013
C         57.59605        28.70735         0.15347
C         56.39196        29.42991         0.12220
C         57.64674        31.58458         0.20138
C         56.39570        30.86909         0.19422
C         57.65756        33.01136         0.10164
C         56.41938        33.73276         0.04923
C         57.65628        35.88711        -0.02523
C         56.41703        35.16884        -0.05132
C         57.65907        37.32131        -0.04050
C         56.41729        38.04430        -0.12415
C         57.65988        40.19453         0.02846
C         56.41063        39.46725        -0.14027
C         57.65212        41.59988         0.19858
C         56.33654        42.33996         0.21170
C         57.59094        44.46202         0.60200
C         56.49188        43.80943        -0.19626
C         57.49248        45.83590         0.94031
C         56.30113        46.59369         0.64909
C         57.39361        48.55671         1.63882
C         56.27607        47.95938         1.00106
C         58.82654        25.19306        -0.33678
C         60.07048        27.34170        -0.20558
C         58.83196        26.59051        -0.16176
C         60.10112        28.66747         0.04632
C         58.88066        29.39069         0.56212
C         60.07446        31.60105         0.30915
C         58.87666        30.88173         0.30341
C         60.08892        32.99031         0.19230
C         58.89280        33.72299         0.09320
C         60.09449        35.91211         0.04283
C         58.88967        35.17572         0.03494
C         60.09466        37.29638         0.04022
C         58.88800        38.03222         0.02008
C         60.07851        40.22227         0.29941
C         58.88769        39.48472         0.09952
C         60.05258        41.59156         0.50608
C         58.83048        42.30231         0.50174
C         59.84542        44.36841         1.51458
C         58.75812        43.72882         0.85979
C         59.76923        45.69774         1.86781
C         58.60320        46.45861         1.58650
C         58.52834        47.83263         1.93280
O         53.10437        33.56345         1.42261
O         45.94345        28.82710         1.62924
O         49.29674        33.44529        -1.49893
O         27.38860        28.76796         1.76545
O         44.94372        48.41927        -2.49075
O         48.44079        41.90974         1.50998
O         54.74862        48.75900        -0.75359
O         27.95059        32.18506         2.57084
O         49.82791        35.55008         1.39103
O         27.40073        25.86991        -2.81540
O         48.82448        38.75882        -1.66510
O         31.62466        47.57727         1.02129
O         42.14597        48.22510        -2.79297
O         39.69564        26.84657         2.34246
O         41.07396        37.94936         2.39327
O         24.77685        44.33992         1.73974
O         27.56863        26.37880         0.67720
O         48.50908        51.43487         1.82720
O         45.41727        44.83772        -2.23068
O         34.62879        48.14746        -2.30750
O         36.44082        44.26500         1.96831
H         37.06397        43.65060         2.43809
O         37.91487        42.03758         2.42422
H         37.30430        41.39722         2.85148
O         45.38652        23.01679         1.93254
H         45.30060        22.08349         2.22243
O         39.69302        48.67813        -2.97135
H         40.51032        48.73976        -3.52153
O         52.59241        28.28367         1.66736
H         52.57910        29.10626         2.20016
O         24.47506        38.38891         3.09934
H         25.43469        38.25119         3.27710
O         52.76347        37.26477        -2.23117
H         51.94762        36.81307        -2.53564
O         56.93913        43.87040        -1.59116
H         56.92252        44.81120        -1.86787
O         47.51877        24.47514        -2.06890
H         48.30149        24.00513        -2.42939
O         34.11790        43.48250        -1.86042
H         34.07166        44.36749        -2.28420
O         55.61438        41.64630        -2.04410
H         55.96182        42.54450        -2.26708
O         40.61531        46.38970         1.18097
H         39.91391        45.97308         1.72745
O         25.32530        41.31628        -1.20254
H         24.46326        40.88217        -1.38269
O         42.29175        27.42857        -1.39334
H         43.12293        27.70310        -1.85733
O         58.94168        29.26361         2.03440
H         58.89700        28.30591         2.24265
O         45.01623        27.67744        -1.72726
H         45.28070        26.87012        -2.22088
O         39.10358        29.38560         3.03628
H         39.23105        28.42368         3.23077
O         34.49633        21.71478        -3.45033
H         33.67028        22.14986        -3.75125
O         34.11582        39.00982        -0.88499
H         34.08889        39.80440        -1.45946
O         55.86156        42.36268         1.58302
H         55.84609        41.44085         1.91571
O         26.99779        37.78434        -0.51812
H         26.31662        38.24180        -1.05465
O         40.06255        22.70477         2.26170
H         39.97883        21.71906         2.34984
O         39.19109        33.87562         3.12786
H         40.02169        34.33793         3.37240
O         34.53608        26.03859        -2.21681
H         34.77751        25.23822        -2.73149
O         29.16621        27.85149        -2.24244
H         29.77973        27.48261        -2.91137
O         27.85682        40.61642         2.70470
H         27.08531        41.19927         2.87301
O         52.69693        44.65999        -2.22728
H         51.75618        44.60943        -2.52371
O         46.74645        35.29469         2.26680
H         46.87968        36.23465         2.51304
O         30.44608        37.52935         3.18665
H         30.62219        38.46873         3.41509
O         35.23359        53.36815         0.58662
H         36.05269        53.86575         0.79658
O         51.86021        33.53752        -1.95966
H         51.02047        33.61950        -2.46790
O         41.30506        17.69794         1.54899
H         40.62928        16.99087         1.63615
O         29.04334        43.40209        -1.76943
H         28.23878        42.86286        -1.93095
O         39.92951        20.00124         1.79526
H         40.52272        19.24812         2.06018
O         27.60998        37.59970         3.07681
H         28.46645        37.44685         3.54524
O         34.23489        38.70192         2.76180
H         34.23182        37.91920         3.35219
O         49.23386        44.36311         1.52671
H         48.79720        43.71529         2.12790
O         52.67987        27.72977        -1.94693
H         52.71130        26.90495        -2.47509
O         32.74529        26.97602         1.82834
H         31.92710        27.39929         2.16739
O         49.85427        44.25778        -2.08619
H         49.02350        44.73900        -2.29672
H         22.14995        27.01806        -0.77301
H         22.09662        29.35610        -0.02445
H         22.09480        31.15434         0.60664
H         22.06463        33.53100         1.05640
H         22.03311        35.40358         1.41829
H         22.00887        37.79225         1.75808
H         22.02184        39.64841         1.07878
H         21.97516        42.07711         0.80982
H         21.89296        43.98291         0.14704
H         21.95101        46.38173        -0.33962
H         25.47857        23.89469        -2.05714
H         23.39245        24.94800        -1.30636
H         25.26785        49.69416        -1.03423
H         23.16184        48.47465        -0.68914
H         27.31923        23.08802        -2.64232
H         26.90460        50.57065        -1.42491
H         29.37070        21.81064        -2.36403
H         29.00421        51.78321        -1.66061
H         33.03142        19.58871        -1.97220
H         30.92498        20.75690        -1.73004
H         32.74298        54.03824        -1.06215
H         30.62188        52.81276        -1.14951
H         34.77237        18.78952        -2.51656
H         34.39281        54.91124        -1.83961
H         36.73381        17.43406        -2.02140
H         36.52067        56.06894        -2.10765
H         40.26480        15.05208        -1.43598
H         38.20996        16.36971        -1.62114
H         40.21432        58.35604        -1.28375
H         38.09243        57.12843        -1.49871
H         42.70060        14.95710        -1.01489
H         42.66638        58.36544        -0.93330
H         44.80560        16.08706        -0.45263
H         44.77003        57.16033        -0.54759
H         48.53697        18.15637        -0.41930
H         46.42278        16.97971        -0.31735
H         48.35419        54.99041         0.53781
H         46.31821        56.21318        -0.00518
H         50.19592        19.09786        -0.47133
H         50.07430        54.07274         0.55841
H         52.27961        20.31990        -0.63539
H         52.13816        52.83677         0.77710
H         56.01314        22.43591        -0.52500
H         53.90459        21.25291        -0.65429
H         55.71253        50.59419         1.83961
H         53.61543        51.77102         1.63758
H         57.67430        23.39687        -0.51763
H         57.36534        49.62365         1.89599
H         59.78357        24.66137        -0.43921
H         60.98992        26.80595        -0.48682
H         61.06181        29.19917         0.00195
H         61.03397        31.08061         0.42794
H         61.05940        33.50285         0.20712
H         61.06101        35.39210         0.06209
H         61.06035        37.81822         0.05584
H         61.04848        39.70856         0.32946
H         60.99931        42.12037         0.68158
H         60.75486        43.79966         1.75114
H         60.61486        46.18663         2.37266
H         59.38512        48.31473         2.42434
