         349
 CSIRO Nanostructure Databank - Neutral Graphene Oxide Data Set
C          1.59290         1.72946        -1.38614
C          1.40863         2.74736        -0.42414
C          2.84480         1.52269        -1.91616
C          2.47422         3.54918        -0.04896
C          1.15772         6.52324         0.02020
C          1.19825         7.75935        -0.52957
C          2.37517         5.80592         0.31072
C          2.48506         8.41965        -0.80736
C          1.39930        10.57674        -1.44926
C          1.37657        11.95493        -1.61714
C          2.49798         9.89564        -0.91959
C          2.59505        12.74818        -1.45129
C          1.41369        14.92771        -1.74592
C          1.41170        16.36883        -1.83232
C          2.54017        14.22565        -1.43688
C          2.47901        17.10128        -1.39114
C          2.54039        18.53823        -1.51205
C          3.97142         2.28192        -1.47082
C          3.80926         3.36993        -0.53286
C          5.24344         1.93676        -1.95338
C          4.95649         4.08523        -0.03502
C          3.63060         6.29891         0.09532
C          3.75630         7.69541        -0.40044
C          4.84146         5.50521         0.53184
C          4.93905         8.50857         0.01309
C          3.61886        10.66937        -0.28171
C          3.80611        12.05571        -0.87758
C          4.92651         9.91743        -0.10960
C          4.89807        12.86377        -0.26011
C          3.84555        14.97305        -1.22279
C          3.57571        16.37272        -0.64228
C          4.85397        14.23766        -0.35367
C          4.84773        17.17302        -0.51006
C          3.66221        19.23898        -1.18968
C          4.86918        18.57393        -0.72596
C          6.38662         2.48258        -1.34755
C          6.21811         3.49272        -0.32834
C          7.68569         2.01891        -1.68155
C          7.42034         3.81135         0.37384
C          6.04172         6.39637         0.87356
C          6.07482         7.84429         0.52083
C          7.36442         5.81419         1.14166
C          7.28494         8.56649         0.71502
C          6.07500        10.67103         0.23837
C          6.06029        12.14039         0.23513
C          7.25041         9.98089         0.63092
C          7.22680        12.85043         0.52913
C          5.90897        15.05516         0.26160
C          5.99863        16.51034        -0.04885
C          7.16946        14.31160         0.69224
C          7.19406        17.22872         0.12578
C          6.05563        19.29300        -0.51315
C          7.24651        18.63254        -0.12753
C          8.84910         2.52609        -1.06802
C          8.70074         3.53327        -0.04583
C         10.12051         1.95073        -1.29468
C          9.87328         4.12523         0.71992
C          8.58566         6.41341         0.97225
C          8.56588         7.87847         0.91879
C          9.86266         5.67424         0.89041
C          9.74352         8.55814         1.11532
C          8.42337        10.74674         1.09188
C          8.48330        12.19131         0.81040
C          9.72915        10.01515         1.34873
C          9.69092        12.87085         0.86102
C          8.45760        15.07160         0.74192
C          8.45068        16.54496         0.49496
C          9.70422        14.29488         0.34244
C          9.72612        17.17052        -0.04770
C          8.48307        19.34641         0.00283
C          9.72933        18.68983         0.07170
C         11.27680         2.44534        -0.63765
C         11.18613         3.61711         0.17555
C         12.55238         1.88469        -0.93361
C         12.36210         4.24347         0.59239
C         11.03672         6.36680         1.02751
C         10.99350         7.80664         1.53362
C         12.39401         5.75837         0.69688
C         12.29321         8.55969         1.20054
C         10.98849        10.77870         1.26446
C         10.95547        12.19051         1.06932
C         12.22158        10.08014         1.35102
C         12.17332        12.92531         0.95928
C         10.97464        15.05361         0.61191
C         10.95405        16.56776         0.66852
C         12.17505        14.37175         0.76371
C         12.23325        17.17087         0.13398
C         10.94349        19.37478         0.13208
C         12.23980        18.69969        -0.02364
C         13.70940         2.41604        -0.37487
C         13.59537         3.59739         0.39050
C         15.08504         1.88156        -0.74818
C         14.75178         4.15478         1.10793
C         13.59980         6.36100         1.44608
C         13.51111         7.86020         1.89432
C         14.73464         5.57982         1.55448
C         14.76771         8.66037         1.55377
C         13.40674        10.79367         1.18343
C         13.41193        12.21458         1.01602
C         14.73365        10.16319         1.48579
C         14.65030        12.88700         0.88384
C         13.42928        15.09473         0.75195
C         13.49136        16.48000         0.46206
C         14.67570        14.34516         0.96532
C         14.69268        17.19623         0.28756
C         13.53003        19.36108         0.12530
C         14.73099        18.63254         0.14753
C         16.09606         1.98764         0.42558
C         16.02108         3.36580         1.11668
C         17.49379         1.59250         0.00036
C         17.30019         4.06920         1.47618
C         16.02979         6.02498         2.06394
C         16.00661         8.19048         1.92742
C         17.27426         5.53861         1.70673
C         17.26730         8.60864         1.36166
C         15.88382        10.67966         0.65088
C         15.86360        12.16386         0.45341
C         17.18392         9.93070         0.66023
C         17.17910        12.87058         0.27164
C         15.99115        15.06505         0.82044
C         15.95675        16.45449         0.27981
C         17.25227        14.32532         0.54245
C         17.25708        17.18347         0.20308
C         16.00130        19.31659         0.15811
C         17.24132        18.66436         0.22082
C         18.65173         2.15110         0.48144
C         18.59812         3.38928         1.30340
C         19.94302         1.58106         0.22943
C         19.83456         4.21800         1.49764
C         18.49153         6.36126         1.55216
C         18.40151         7.81210         1.25727
C         19.72872         5.71025         1.37057
C         19.55635         8.44251         0.46724
C         18.44724        10.68568         0.51255
C         18.44699        12.10374         0.37107
C         19.63891         9.96439         0.56634
C         19.65524        12.80174         0.32202
C         18.42889        14.99062         0.47163
C         18.46796        16.47223         0.77724
C         19.65666        14.27213        -0.03948
C         19.74014        17.15832         0.36756
C         18.49605        19.30775         0.26963
C         19.72968        18.57911         0.26834
C         21.13301         2.10677         0.74268
C         21.12831         3.47967         1.37311
C         22.35129         1.43534         0.45504
C         22.34582         4.32645         1.22107
C         20.93609         6.43582         0.98380
C         20.89192         7.76505         0.65627
C         22.20087         5.67283         0.59366
C         22.09450         8.46983         0.05294
C         20.87922        10.66453         0.46945
C         20.88380        12.09597         0.39173
C         22.11455         9.96336         0.32180
C         22.12193        12.81599         0.31857
C         20.94204        14.98875         0.28608
C         20.94396        16.41505         0.30347
C         22.14330        14.26341         0.31488
C         22.19663        17.11317         0.28210
C         20.98055        19.25284         0.16078
C         22.19625        18.56014         0.19844
C         23.58169         1.76286         1.08054
C         23.52088         3.85558         1.67285
C         24.87522         1.49867         0.68118
C         24.87407         4.49733         1.54683
C         23.48206         6.46202         0.72634
C         23.41600         7.81884         0.38879
C         24.73533         5.81738         0.84190
C         24.60365         8.51958         0.13320
C         23.30822        10.66818         0.18852
C         23.33276        12.10022         0.25637
C         24.53105         9.95055        -0.33748
C         24.58776        12.80186         0.25009
C         23.40113        14.95984         0.34341
C         23.39460        16.38310         0.34282
C         24.62709        14.21050         0.30819
C         24.66442        17.12945         0.43303
C         23.44334        19.25851         0.11610
C         24.66131        18.59043         0.18572
C         26.04072         2.15636         1.41196
C         25.98992         3.62032         0.98293
C         27.31094         1.46730         1.04478
C         27.06130         4.22580         0.29034
C         25.89643         6.44401         0.34016
C         25.80364         7.81025         0.00535
C         27.08815         5.65885         0.01049
C         26.97802         8.52185        -0.52356
C         25.82672        10.69056        -0.05639
C         25.81538        12.04135         0.25009
C         27.06867         9.96119        -0.14494
C         27.07061        12.74645         0.57542
C         25.91555        14.88703         0.27974
C         25.94735        16.36674         0.33522
C         27.09995        14.21257         0.41549
C         27.21301        17.05896        -0.06438
C         25.91297        19.25235         0.11316
C         27.13013        18.56265         0.00835
C         28.30122         2.05459         0.30184
C         28.20675         3.44696        -0.09436
C         29.45521         1.27167        -0.08205
C         29.25790         4.02246        -0.85588
C         28.17512         6.24777        -0.66096
C         28.18843         7.73618        -0.87616
C         29.24167         5.42493        -1.18623
C         29.46188         8.52346        -0.86485
C         28.29396        10.54286         0.08372
C         28.38282        11.96357         0.47566
C         29.56360         9.68678         0.10930
C         29.54241        12.71352        -0.08016
C         28.47934        14.86347         0.62269
C         28.54009        16.43797         0.48006
C         29.46049        14.11212        -0.29048
C         29.15603        16.94562        -0.85312
C         28.33939        19.21827        -0.26984
C         29.43723        18.42635        -0.68514
C         30.40771         1.80559        -0.88820
C         30.32523         3.17674        -1.31641
C         31.28772         3.67550        -2.20244
C         30.25845         5.87194        -2.08690
C         30.48565         8.20011        -1.68367
C         31.22547         5.00404        -2.61138
C         31.78062         8.86063        -1.63844
C         30.85900        10.57588        -0.05741
C         30.58134        11.95364        -0.65220
C         31.97786         9.90403        -0.81365
C         31.43811        12.56671        -1.57583
C         30.31459        14.70511        -1.23371
C         30.21135        16.16998        -1.64844
C         31.24847        13.90446        -1.91567
C         31.58505        16.80674        -1.58154
C         30.70837        18.94771        -0.84758
C         31.79311        18.10273        -1.23974
O          6.17758        14.73923         1.66584
O         27.27376         8.20471        -1.93626
O         27.77336        16.80735        -1.45149
O         25.46553        16.82440         1.64589
O          8.54922        15.99655         1.86136
O          7.29446         4.49337         1.59930
O         15.12467         3.29313         2.27498
O          5.09937         5.89018         1.91721
O         27.80072        12.28173         1.76492
O         28.83392        14.57567         1.95254
O          8.84512        10.40604         2.46009
O         16.26333         9.89970        -0.50644
O         16.02089         7.16109         2.86694
O         15.45988        14.88880         2.15188
O         24.17339         9.92540        -1.72659
O         23.48243         2.56705         2.24154
O          3.72898        12.19655        -2.31652
O         12.21706        17.72979        -1.18513
O         20.54011         3.68793         2.69125
O          2.19775         4.54282         0.89674
O          3.38222         7.80343        -1.82243
O         17.89891         3.29497         2.59121
O         30.36032         7.15597        -2.61005
O         16.70564        16.57647        -0.99477
O         16.32817        12.57168        -0.89282
O         25.33465         4.78194         2.91148
H         25.32400         3.90838         3.37384
O         15.68702         0.97070         1.37646
H         15.36165         1.44398         2.17988
O         13.34648         7.91614         3.32139
H         14.14909         7.50600         3.71594
O         19.56242        14.33134        -1.50201
H         18.73697        13.87197        -1.76963
O         19.24119         8.17300        -0.93982
H         20.07019         8.34325        -1.45482
O         29.07141        16.99686         1.64776
H         29.10827        16.22807         2.29044
O         22.04540         5.45182        -0.84850
H         22.02899         6.34344        -1.27990
O         15.00832         0.51747        -1.14537
H         15.03335        -0.00719        -0.31279
O         25.87892         2.04712         2.85484
H         26.77226         2.02096         3.25598
O          3.17346        10.94746         1.09622
H          3.20625        10.11301         1.61001
O          4.46292        15.11885        -2.52682
H          4.49222        14.22201        -2.93110
O          9.74407        16.83364        -1.44801
H         10.56448        17.22237        -1.83659
O          9.57526        14.15880        -1.11729
H         10.44395        13.88072        -1.47634
O         10.89348         7.75471         2.97798
H         10.04171         7.33011         3.21022
O          9.81656         3.61187         2.08463
H          8.91480         3.81397         2.42818
O         21.98830         8.34371        -1.41469
H         22.76844         8.89592        -1.76674
O         31.36801        10.85702         1.27695
H         30.91676        11.65875         1.62107
O         29.81978        16.20140        -3.04540
H         28.83696        16.21623        -3.06530
O         15.04330        10.62800         2.84867
H         14.35095        10.26764         3.44572
O         18.36344        16.63804         2.22397
H         19.15851        16.24439         2.64043
O         29.58743         9.08971         1.42711
H         30.28423         9.57401         1.93754
O          3.07942        16.13773         0.70751
H          2.95890        17.00641         1.14420
O         12.64182         5.99798        -0.73752
H         12.41328         6.93954        -0.93837
O         12.48019         8.49075        -0.24396
H         13.36178         8.86821        -0.45699
O         10.95248        16.97480         2.06196
H         10.13873        16.59346         2.47685
H          0.74020         1.11417        -1.70276
H          0.42243         2.91916         0.02526
H          3.01431         0.72495        -2.65261
H          0.20158         6.04875         0.27839
H          0.26739         8.32705        -0.66721
H          0.51045        10.00479        -1.75448
H          0.45444        12.43766        -1.96668
H          0.47893        14.40477        -1.99500
H          0.54372        16.86701        -2.28897
H          1.66077        19.06197        -1.91649
H          5.34557         1.17000        -2.73438
H          3.68939        20.33086        -1.31761
H          7.77986         1.20773        -2.41800
H          6.07151        20.37872        -0.68967
H         10.21508         1.10787        -1.99493
H          8.46063        20.44575        -0.05609
H         12.62220         1.01697        -1.60518
H         10.94108        20.46685         0.27386
H         15.45835         2.47763        -1.62636
H         13.55484        20.45486         0.24063
H         17.55965         0.67201        -0.60109
H         15.98537        20.41711         0.12828
H         19.98477         0.63128        -0.32648
H         18.53875        20.40719         0.24935
H         22.33280         0.61690        -0.28141
H         20.98992        20.34969         0.07636
H         25.07452         1.00011        -0.27801
H         23.42974        20.35148        -0.01316
H         27.42937         0.42633         1.38218
H         25.92446        20.35191         0.04767
H         29.51306         0.22679         0.25381
H         28.41918        20.31512        -0.22834
H         31.26435         1.20411        -1.22469
H         32.08196         3.01427        -2.57568
H         31.95791         5.40366        -3.32452
H         32.60764         8.42730        -2.21800
H         32.98129        10.33951        -0.69782
H         32.23387        11.98682        -2.06372
H         31.86805        14.35072        -2.70564
H         32.43867        16.19378        -1.90598
H         30.89572        20.01026        -0.63536
H         32.80877        18.52317        -1.26619
