         404
 CSIRO Nanostructure Databank - Neutral Graphene Oxide Data Set
C          1.18016         4.09215         1.65766
C          0.02486         4.29593         0.93173
C          1.21778         5.86781        -0.47537
C          0.05725         5.15624        -0.18337
C          1.25415         7.92708        -1.52970
C          0.05717         8.60653        -1.85105
C          1.17110        10.73506        -1.47545
C         -0.01264         9.97671        -1.72059
C          1.11656        12.12912        -1.25621
C         -0.10912        12.84211        -1.03547
C          1.14175        14.71457        -0.03988
C         -0.11070        14.10353        -0.52191
C          1.13936        16.09804         0.63486
C         -0.06467        16.92482         0.69410
C          1.17296        19.05935         0.76201
C         -0.03163        18.29931         0.70840
C          1.21558        20.48642         0.70563
C          0.02299        21.25751         0.52395
C          1.23457        23.37624         0.74154
C          0.04197        22.63214         0.52177
C          1.23242        24.81045         0.72562
C          0.04774        25.52067         0.37888
C          1.21800        27.68204         0.50403
C          0.06301        26.88285         0.24945
C          1.11363        29.05919         0.07673
C          0.13208        29.52559        -0.88917
C          1.36444        31.63809        -1.25514
C          0.17975        30.77135        -1.44128
C          1.57058        33.02397        -1.87357
C          0.42641        33.76838        -2.44268
C          1.38938        35.94802        -1.78870
C          0.33714        35.11993        -2.36275
C          1.30188        37.37245        -1.75295
C          3.59563         4.35828         1.90553
C          2.38464         4.78421         1.32971
C          3.57068         6.64590         0.13775
C          2.39206         5.80692         0.31752
C          3.55623         7.92788        -0.49801
C          2.43268         8.58572        -1.13676
C          3.65270        10.72475        -1.49386
C          2.43933        10.03314        -1.36428
C          3.66663        12.20546        -1.66168
C          2.34940        12.93052        -1.32529
C          3.62539        14.88936        -0.38906
C          2.41066        14.22130        -0.60964
C          3.67910        16.19007         0.22983
C          2.45630        16.80430         0.75743
C          3.70031        19.05747         0.74545
C          2.43795        18.33221         0.92133
C          3.68811        20.46890         0.90305
C          2.44714        21.18887         0.87717
C          3.62397        23.32900         1.29286
C          2.45954        22.63871         0.96208
C          3.58239        24.79474         1.51022
C          2.39200        25.57475         1.06491
C          3.64405        27.70425         1.37514
C          2.39796        26.99767         1.03329
C          3.69280        29.07754         1.59170
C          1.94761        30.08709         0.58528
C          3.15177        32.24888         0.39288
C          2.17015        31.31078        -0.05796
C          3.58778        33.34904        -0.31294
C          2.80796        33.86267        -1.51062
C          3.63865        36.11352        -0.83449
C          2.55077        35.33877        -1.30813
C          3.60057        37.53985        -0.92917
C          2.37549        38.14269        -1.35621
C          6.03193         4.29460         1.84087
C          4.81714         4.91370         1.47917
C          6.06106         6.74828         0.47304
C          4.80828         6.13425         0.69849
C          6.09610         8.14315         0.02446
C          4.76176         8.77110        -0.36384
C          6.10821        10.40708        -1.62174
C          4.86247         9.98909        -1.19819
C          6.13768        12.51328        -1.85936
C          4.89770        13.00215        -1.40417
C          6.12498        14.92927        -0.55342
C          4.87677        14.27359        -0.79841
C          6.12729        16.27297        -0.05353
C          4.88970        16.91881         0.27844
C          6.13723        19.05319         0.64424
C          4.90248        18.33497         0.59351
C          6.12483        20.44431         0.98088
C          4.92377        21.15201         1.09644
C          6.14667        23.34757         1.26648
C          4.89602        22.57422         1.62562
C          6.17921        24.76536         1.61618
C          4.89422        25.53078         1.71057
C          6.13979        27.65179         1.46680
C          4.93521        26.99211         1.44840
C          6.17637        29.12114         1.47711
C          4.89715        29.84774         1.45778
C          6.01553        31.94063         0.63071
C          4.90866        31.21675         1.29334
C          6.00081        33.41085         0.39111
C          4.82643        34.05551        -0.04037
C          6.00349        36.22379        -0.23671
C          4.83836        35.47247        -0.37619
C          6.00984        37.64837        -0.41755
C          4.77906        38.28721        -0.68264
C          8.49170         4.15714         1.71080
C          7.27651         4.82400         1.44326
C          8.53511         6.72452         0.47564
C          7.28909         6.10789         0.78625
C          8.56624         8.02399        -0.15741
C          7.37519         8.72100        -0.42957
C          8.61155        10.66486        -1.39860
C          7.39724         9.96923        -1.12996
C          8.62308        12.19593        -1.88086
C          7.37964        12.99040        -1.46044
C          8.59871        14.92938        -0.53707
C          7.36617        14.26228        -0.82589
C          8.59194        16.28212        -0.11619
C          7.35602        16.97570         0.09668
C          8.61533        19.07641         0.48432
C          7.37191        18.36348         0.44070
C          8.65996        20.46940         0.76691
C          7.42150        21.12090         1.21658
C          8.68162        23.34216         1.01260
C          7.43444        22.64544         1.36467
C          8.55475        24.80101         0.64906
C          7.47975        25.49963         1.47297
C          8.46931        27.64145         0.49139
C          7.52669        27.01909         1.55723
C          8.65140        29.11527         0.77268
C          7.43274        29.85595         1.14006
C          8.59427        31.99855         0.57284
C          7.33203        31.22972         0.56604
C          8.50983        33.42624         0.49290
C          7.27478        34.07572         0.33194
C          8.53920        36.28600        -0.12363
C          7.27408        35.49305        -0.11006
C          8.48871        37.76606        -0.16866
C          7.24220        38.38420        -0.32610
C         10.94677         4.02621         1.54386
C          9.73116         4.72021         1.33867
C         10.99308         6.61551         0.36763
C          9.74904         6.03038         0.72828
C         11.01685         7.90254        -0.27466
C          9.80636         8.60944        -0.55131
C         11.08772        10.28084        -1.74026
C          9.82373         9.89726        -1.21070
C         11.12232        12.49940        -1.82826
C          9.87064        12.96324        -1.42481
C         11.05401        14.91635        -0.49422
C          9.83060        14.24607        -0.79834
C         11.05153        16.28060        -0.09138
C          9.82641        16.98228         0.04182
C         11.08077        19.09389         0.28351
C          9.84351        18.38314         0.28447
C         11.08911        20.52462         0.33772
C          9.85758        21.20555         0.63677
C         11.02393        23.40762         0.24388
C          9.83374        22.65037         0.71688
C         11.17811        24.85650         0.71710
C          9.84747        25.58273         0.58400
C         10.96503        27.70270        -0.12522
C          9.79514        26.92245         0.43064
C         11.07240        29.14070         0.34279
C          9.82298        29.83167         0.62025
C         11.05838        32.01899         0.84339
C          9.78553        31.28950         0.71159
C         11.06649        33.46859         0.57424
C          9.77123        34.22003         0.80276
C         10.96106        36.31281         0.10875
C          9.79570        35.62771         0.27046
C         10.96790        37.76218        -0.08799
C          9.72846        38.45199        -0.13373
C         13.40953         3.88649         1.35375
C         12.18895         4.59097         1.18389
C         13.46233         6.51289         0.30110
C         12.21093         5.91536         0.61102
C         13.49765         7.82631        -0.26935
C         12.27326         8.47202        -0.60692
C         13.58958        10.25393        -1.64919
C         12.30984         9.67287        -1.38019
C         13.63083        12.43019        -1.59256
C         12.35065        13.03627        -1.37191
C         13.51278        14.85927        -0.20488
C         12.30478        14.25759        -0.65393
C         13.50980        16.23196         0.07657
C         12.28807        16.96785         0.06518
C         13.55748        19.08131         0.11869
C         12.30513        18.38269         0.18150
C         13.54932        20.52414         0.04062
C         12.30780        21.21648         0.12204
C         13.58135        23.41070        -0.10450
C         12.30449        22.67479        -0.04323
C         13.57880        24.85628        -0.19275
C         12.32628        25.58624         0.02365
C         13.47373        27.73906        -0.43533
C         12.26987        26.94754        -0.10212
C         13.51827        29.16124        -0.04910
C         12.28169        29.81304         0.30620
C         13.56143        32.00440         0.29046
C         12.34694        31.25164         0.65538
C         13.52314        33.41500         0.22383
C         12.24698        34.11548         0.31354
C         13.50141        36.30871        -0.20059
C         12.22218        35.55456        -0.03612
C         13.46519        37.78477        -0.05815
C         12.20374        38.44481        -0.08937
C         15.88046         3.75120         1.13143
C         14.64915         4.46114         1.01316
C         15.92509         6.43775         0.22973
C         14.67998         5.81207         0.51809
C         15.96416         7.80320        -0.20531
C         14.73811         8.47959        -0.48211
C         15.98673        10.58908        -0.96092
C         14.76725         9.80161        -1.04216
C         15.99092        12.00782        -0.86701
C         14.77565        12.79514        -0.89297
C         16.08779        14.75425         0.23774
C         14.74431        14.05142        -0.12467
C         15.96626        16.22643         0.38001
C         14.75568        16.92769         0.23578
C         16.03936        19.04032        -0.13340
C         14.75899        18.35630         0.12268
C         16.04099        20.55417        -0.24198
C         14.75814        21.25310        -0.09457
C         16.04331        23.33890        -0.53146
C         14.76716        22.67638        -0.17140
C         16.04098        24.84299        -0.66202
C         14.76431        25.54086        -0.43300
C         16.04920        27.72757        -0.33356
C         14.78671        27.00383        -0.57764
C         16.00803        29.12163        -0.11425
C         14.74293        29.83657        -0.01863
C         15.99149        31.99564         0.02719
C         14.76589        31.28216         0.11118
C         15.96224        33.41079        -0.02152
C         14.74460        34.13352         0.03814
C         15.96072        36.30035        -0.04501
C         14.77536        35.57968        -0.03499
C         15.94118        37.76441         0.00601
C         14.67583        38.45506         0.06154
C         18.34502         3.61894         0.87212
C         17.09983         4.34244         0.79393
C         18.38064         6.34766         0.06413
C         17.13928         5.71452         0.36156
C         18.42616         7.73697        -0.28141
C         17.19786         8.46096        -0.41773
C         18.43234        10.56106        -0.77338
C         17.21410         9.87530        -0.71546
C         18.45204        11.98041        -0.88232
C         17.23408        12.71005        -0.65165
C         18.61121        14.70337        -0.39429
C         17.33246        14.07028        -0.24802
C         18.91511        15.99243         0.13361
C         17.11296        17.03183         0.65462
C         18.58712        19.01736         0.35969
C         17.26117        18.34181         0.27671
C         18.56885        20.56481         0.24897
C         17.30851        21.29147        -0.02179
C         18.55910        23.40691        -0.30122
C         17.32617        22.64965        -0.25556
C         18.52019        24.84808        -0.47692
C         17.32455        25.57535        -0.52351
C         18.48798        27.74203        -0.15471
C         17.28855        27.01608        -0.37862
C         18.43936        29.10199         0.23179
C         17.22398        29.82577         0.16424
C         18.44102        31.97154         0.34790
C         17.24323        31.27484         0.18327
C         18.53967        33.39175        -0.02466
C         17.21309        34.15154        -0.22071
C         18.43829        36.29482        -0.02030
C         17.23196        35.61466        -0.06829
C         18.44959        37.78559        -0.28583
C         17.13119        38.45435        -0.00819
C         19.53158         4.21640         0.55697
C         20.81373         6.24414        -0.10489
C         19.59439         5.60118         0.16167
C         20.85300         7.61425        -0.39419
C         19.68383         8.37489        -0.47630
C         20.80856        10.50431        -1.42408
C         19.75924         9.88734        -0.52128
C         20.77321        11.83484        -1.67407
C         19.65958        12.65586        -1.21585
C         20.78480        14.90767        -1.51827
C         19.69723        14.07241        -1.09803
C         20.81472        16.26801        -1.27241
C         19.86329        16.87828        -0.38988
C         20.97630        19.09248        -0.19959
C         19.83683        18.31176        -0.04051
C         20.98390        20.50823        -0.16598
C         19.82289        21.27187        -0.06781
C         21.02257        23.46065        -0.24845
C         19.78762        22.71123        -0.21873
C         21.04326        24.80643        -0.40740
C         19.80454        25.56605        -0.60891
C         21.00330        27.81571         0.04604
C         19.79121        27.10640        -0.40869
C         20.93529        29.02993         0.62549
C         19.65710        29.75125         0.75233
C         20.87710        32.09449         0.94667
C         19.64063        31.30597         0.85995
C         20.88453        33.44945         0.75248
C         19.73022        34.17803         0.32807
C         20.81941        36.39338         0.55492
C         19.69180        35.60495         0.23035
C         20.73268        37.80246         0.69771
C         19.60004        38.49066         0.36837
O          7.53553        21.74360         2.54301
O          8.05161        35.65476        -1.37873
O         19.88000        26.50230        -1.73543
O          7.16715        24.94523         2.76681
O         11.50136        24.83441         2.07785
O          6.11103        11.35911        -2.65061
O          2.87634        12.83528        -2.71027
O         19.43312        30.43013         2.02377
O         11.14906        11.35118        -2.64869
O         11.35272        23.14881        -1.13417
O         13.68855        11.36221        -2.50989
O         15.33149        13.97721         1.21383
O         12.77402        35.81156        -1.38758
O          7.05040        29.71349         2.54633
O         11.86197        31.59157         2.00816
O          2.03701        31.82536        -2.57795
O         18.00454        33.68545        -1.36192
O          3.78420        31.96939         1.62867
O          2.54759        17.41993         2.07704
O         18.19392        16.38829         1.26220
O         14.04069        27.47870        -1.77133
O          4.07352        25.19145         2.85911
O         18.65455        19.86925         1.54883
O         16.11171        19.70059        -1.45395
O         15.99965        23.97024        -1.85490
O          1.23313         6.54290        -1.70839
O          1.12502        14.87073         1.43190
O          5.31495         8.98359         0.97604
O          2.52992        29.81874         1.83200
O          6.48234        31.25672        -0.62217
O          8.62606        12.17468        -3.32181
H          9.46713        11.74941        -3.60644
O          4.93325        22.46156         3.08652
H          5.85025        22.17664         3.32707
O          8.01433        24.78876        -0.71574
H          8.74535        24.56771        -1.33203
O          7.81219        27.55967        -0.79666
H          8.50214        27.72381        -1.47999
O          3.68719        33.80524        -2.66559
H          3.64683        32.88209        -3.00535
O         20.15573        10.25595         0.85043
H         20.14209        11.23580         0.90409
O          9.71164        34.39516         2.27214
H          9.91773        33.52714         2.68342
O         10.61755        27.82599        -1.56595
H         11.45292        27.97472        -2.06241
O         18.67299        37.92127        -1.74630
H         18.01209        37.35037        -2.19420
O          8.12122        27.34708         2.82124
H          7.76016        26.72266         3.49000
H          1.20475         3.35455         2.47190
H         -0.89400         3.74539         1.17440
H         -0.81126         5.24387        -0.84846
H         -0.82549         8.02059        -2.13828
H         -0.96913        10.48894        -1.88740
H         -1.06906        12.35014        -1.24699
H         -1.06344        14.60483        -0.30431
H         -1.03776        16.41646         0.73857
H         -0.99376        18.83052         0.71199
H         -0.93599        20.74517         0.37156
H         -0.91110        23.15445         0.37058
H         -0.88849        24.98689         0.17657
H         -0.87254        27.37875        -0.03926
H         -0.68436        28.85895        -1.19975
H         -0.56222        31.05600        -2.20065
H         -0.38706        33.19004        -2.90494
H         -0.54849        35.62868        -2.77231
H          0.37958        37.85762        -2.10495
H          3.59556         3.50999         2.60532
H          2.30953        39.23963        -1.40237
H          6.00126         3.35893         2.41849
H          4.75151        39.38229        -0.78926
H          8.46944         3.17466         2.20512
H          7.19930        39.47975        -0.42740
H         10.91943         3.02073         1.98952
H          9.73407        39.55099        -0.19976
H         13.38202         2.86344         1.75780
H         12.19578        39.54587        -0.10165
H         15.86346         2.70952         1.48591
H         14.68580        39.55237         0.14611
H         18.32140         2.56599         1.18944
H         17.11644        39.55487         0.02360
H         20.47128         3.64801         0.62109
H         21.75234         5.67530        -0.03606
H         21.82877         8.10319        -0.52656
H         21.66360         9.90029        -1.76237
H         21.58967        12.31590        -2.23326
H         21.59400        14.45778        -2.11064
H         21.62320        16.87520        -1.70404
H         21.93070        18.59245        -0.42044
H         21.95155        21.00184        -0.33115
H         21.97459        22.92638        -0.12969
H         22.00408        25.33635        -0.45932
H         21.97954        27.32978        -0.09023
H         21.84869        29.51398         0.99914
H         21.79111        31.59512         1.29592
H         21.82573        33.99015         0.92432
H         21.77864        35.91161         0.78623
H         21.60601        38.34019         1.09545
H         19.54991        39.58225         0.49207
