         234
 CSIRO Nanostructure Databank - Neutral Graphene Oxide Data Set
C          1.74130         2.32772         2.36209
C          1.62957         3.66023         1.95701
C          2.92539         1.62052         2.18038
C          2.70858         4.32415         1.31835
C          1.47490         6.53766         1.26787
C          1.51277         7.89228         1.32344
C          2.67101         5.75059         1.05769
C          2.83504         8.61301         1.40196
C          1.72194        10.84749         1.60006
C          1.69690        12.22887         1.48035
C          2.77633        10.08802         1.06758
C          2.72493        12.91730         0.78944
C          1.99768        15.13601         1.63449
C          2.05253        16.50908         1.68052
C          2.74577        14.35306         0.72214
C          2.84196        17.27074         0.70548
C          3.19267        18.67647         1.00478
C          4.03353         2.24055         1.54158
C          3.89817         3.58408         1.08484
C          5.25181         1.54097         1.33347
C          4.99824         4.17114         0.31358
C          3.82966         6.44121         0.61747
C          3.90343         7.85073         0.66038
C          4.94988         5.68180         0.03665
C          5.02172         8.53814         0.11874
C          3.83669        10.74018         0.38556
C          3.79063        12.15899         0.20835
C          4.99467         9.96448        -0.02931
C          4.90938        12.88831        -0.37384
C          3.56533        14.98122        -0.39098
C          3.66595        16.51437        -0.29760
C          4.88643        14.25086        -0.55795
C          4.83288        17.22404        -0.94927
C          4.17539        19.31799         0.34181
C          5.07255        18.65604        -0.60288
C          6.39429         2.15918         0.76163
C          6.31051         3.51661         0.29833
C          7.61015         1.45882         0.61097
C          7.45509         4.20158        -0.16221
C          6.21026         6.37796        -0.26689
C          6.16328         7.78119        -0.32987
C          7.41258         5.62210        -0.47868
C          7.29300         8.49980        -0.91000
C          6.15005        10.64585        -0.50981
C          6.08126        12.09484        -0.82248
C          7.32010         9.95878        -0.81344
C          7.33390        12.81501        -1.24364
C          6.15481        15.05619        -0.74522
C          6.01268        16.42336        -1.41485
C          7.37303        14.28589        -1.19566
C          7.30471        17.14495        -1.75756
C          6.21921        19.29170        -0.95393
C          7.30844        18.68259        -1.79765
C          8.75629         2.09678         0.07695
C          8.69586         3.49830        -0.24744
C          9.96074         1.39031        -0.12255
C          9.89233         4.16639        -0.65864
C          8.62327         6.27605        -0.82140
C          8.59862         7.70178        -1.16795
C          9.86739         5.59405        -0.88773
C          9.86580         8.41996        -1.24584
C          8.60094        10.66057        -0.97533
C          8.62777        12.10274        -1.26482
C          9.88623         9.88541        -1.14699
C          9.81314        12.77014        -1.45769
C          8.56076        14.93365        -1.39066
C          8.59475        16.39703        -1.62437
C          9.83073        14.22734        -1.43712
C          9.85689        17.10207        -1.33298
C          8.65208        19.26704        -1.43010
C          9.83335        18.54871        -1.25258
C         11.12271         2.02948        -0.64123
C         11.07639         3.45037        -0.87537
C         12.29222         1.30385        -0.87791
C         12.27640         4.14805        -1.38152
C         11.07994         6.28917        -1.17395
C         11.06494         7.71342        -1.33506
C         12.33620         5.62429        -1.27813
C         12.28950         8.41139        -1.63226
C         11.04794        10.57301        -1.73005
C         11.06980        12.03931        -1.77782
C         12.12655         9.76772        -2.06661
C         12.41466        12.82071        -1.53471
C         11.00797        14.92424        -1.20151
C         11.01366        16.37176        -1.06536
C         12.21112        14.12051        -0.76085
C         12.21168        17.05215        -0.60689
C         11.05011        19.21787        -0.94772
C         12.22132        18.51182        -0.58317
C         13.54334         1.85684        -1.50877
C         13.52748         3.38566        -1.65604
C         14.74905         1.35625        -0.76578
C         14.84123         4.13409        -1.65624
C         13.55450         6.32715        -1.35738
C         13.55394         7.77774        -1.45939
C         14.83300         5.60802        -1.37164
C         14.77026         8.51891        -1.17082
C         13.92286        10.80630        -1.73202
C         13.66240        12.09973        -1.25573
C         14.85444         9.91980        -1.11886
C         14.76459        12.79114        -0.62140
C         13.47858        14.91796        -0.56469
C         13.37027        16.33077        -0.28357
C         14.66777        14.22467        -0.41826
C         14.48469        17.03121         0.38563
C         13.39771        19.22119        -0.29113
C         14.52445        18.56495         0.34943
C         15.95646         1.97446        -0.75487
C         16.10495         3.34937        -1.36958
C         17.01307         1.32515         0.04303
C         17.30812         4.16384        -1.05142
C         15.98970         6.28088        -1.00903
C         15.84832         7.70125        -0.45173
C         17.26135         5.57924        -0.86313
C         17.20492         8.43777        -0.31836
C         15.90973        10.59762        -0.24243
C         15.95775        12.10036        -0.41814
C         17.22962         9.92474        -0.54590
C         17.24251        12.82284        -0.41576
C         15.86266        14.89160         0.13977
C         15.79238        16.32576         0.56435
C         17.19975        14.32077        -0.16742
C         17.04898        17.08624         0.65880
C         15.83598        19.21626         0.50026
C         17.00572        18.51068         0.70610
C         18.33462         1.45490        -0.25295
C         18.53296         3.51891        -0.95458
C         19.53064         1.07848         0.48350
C         19.67504         4.09423        -0.35138
C         18.47476         6.23274        -0.55303
C         18.49989         7.69809        -0.35256
C         19.67630         5.51722        -0.25622
C         19.82338         8.41209        -0.49142
C         18.52853        10.66890        -0.48327
C         18.51896        12.11507        -0.13953
C         19.82909         9.90594        -0.38768
C         19.63150        12.78619         0.27622
C         18.37429        15.01919         0.37073
C         18.28636        16.36493         0.74554
C         19.63864        14.26952         0.45684
C         19.44329        17.04816         1.32131
C         18.30359        19.27000         0.89241
C         19.38302        18.44166         1.55254
C         20.63050         1.88497         0.53470
C         20.74555         3.30051         0.18569
C         21.88408         3.98773         0.61873
C         20.88630         6.16790         0.13885
C         21.09914         7.65581        -0.06582
C         21.97222         5.38931         0.52433
C         21.74645         8.35226         1.11790
C         20.99023        10.57913         0.31192
C         20.90373        12.06117         0.59561
C         21.78244         9.68975         1.20956
C         21.73771        12.67267         1.66525
C         20.74887        14.90744         1.29230
C         20.56374        16.30464         1.77129
C         21.66236        13.97556         1.98864
C         21.55181        16.95255         2.53063
C         20.39127        19.06580         2.29171
C         21.45207        18.31579         2.80837
O          9.48783        10.35882         0.20844
O         21.70515        11.53601        -0.52387
O         17.86786         8.08822         0.94873
O          7.96894        16.65650        -2.96590
O         20.81820        14.87545        -0.17123
O         14.09817        17.79584         1.55805
O         17.33945        13.80598        -1.52227
O         17.83937        10.39247        -1.76325
O         12.66716         3.74248        -2.78526
O         13.17630        10.32092        -2.81469
O         18.62804         2.20316        -1.41150
O          4.95931        16.75095        -2.33931
O         11.82761        12.70302        -2.83841
O          6.37446        12.31160        -2.25722
O          7.67158         8.03587        -2.25733
O          4.56832         4.71366        -0.98663
O          2.39120        17.10668        -0.71353
O         15.71123        15.22422         1.56198
O         20.08919         9.22549        -1.66480
O         15.66965         3.60416        -2.74357
O         11.87936        13.64993         0.59832
H         11.92144        14.42182         1.20285
O         22.06383         7.74155        -1.14045
H         21.79476         8.50763        -1.70502
O         13.58742         1.29013        -2.84981
H         13.11289         1.92779        -3.43246
O         18.07482        20.49013         1.59960
H         17.66617        20.27254         2.46223
O         15.33985         7.51730         0.89988
H         16.12107         7.54689         1.50108
O          2.81575        14.69458        -1.61211
H          2.19568        15.44927        -1.74151
O         15.60991        10.32422         1.15172
H         14.68817        10.60244         1.33387
O          6.48386        15.47382         0.64918
H          6.67387        14.66549         1.17287
O          3.22668         8.57517         2.83222
H          3.20008         7.63446         3.11004
O          7.06509        19.08624        -3.17354
H          7.45321        18.37918        -3.74034
H          0.88569         1.84022         2.85012
H          0.69257         4.19846         2.15320
H          3.01112         0.57912         2.52087
H          0.50428         6.02322         1.31966
H          0.57783         8.45861         1.43970
H          0.91654        10.34733         2.15504
H          0.85426        12.78515         1.91215
H          1.39594        14.62138         2.39802
H          1.51824        17.05733         2.46930
H          2.59497        19.20570         1.76166
H          5.32475         0.49311         1.65994
H          4.38979        20.37301         0.56987
H          7.66888         0.40274         0.91088
H          6.36895        20.33106        -0.62113
H          9.99985         0.31540         0.10563
H          8.70599        20.36646        -1.39260
H         12.27295         0.21535        -0.71369
H         11.06279        20.31734        -0.92557
H         14.65446         0.37634        -0.27270
H         13.44623        20.30046        -0.49615
H         16.69264         0.68723         0.87982
H         15.88172        20.31464         0.45276
H         19.55927         0.10686         1.00061
H         18.68692        19.56358        -0.12618
H         21.50793         1.48857         1.07251
H         22.73038         3.42395         1.03775
H         22.91883         5.87976         0.79055
H         22.33141         7.74648         1.82672
H         22.37832        10.15284         2.00961
H         22.47513        12.04144         2.18056
H         22.29392        14.36725         2.79941
H         22.42891        16.39459         2.88632
H         20.33877        20.15017         2.46267
H         22.23790        18.81038         3.39575
