         576
 CSIRO Nanostructure Databank - Neutral Graphene Oxide Data Set
C          6.29793        18.98549         2.34845
C          6.31984        20.32243         3.07324
C          5.09284        21.11716         2.69234
C          6.30522        23.21969         2.25579
C          5.08903        22.41706         2.35277
C          6.21979        24.56167         1.91955
C          8.53140        14.79417         0.92957
C          8.51778        16.17781         1.15934
C          7.38283        16.87848         1.60510
C          8.73440        18.92287         2.09039
C          7.40950        18.25971         2.00360
C          8.85764        20.37131         2.49938
C          7.65795        21.16624         3.01214
C          8.74526        23.19580         2.00054
C          7.56783        22.53958         2.36039
C          8.75600        24.66156         1.88334
C          7.38689        25.42487         1.93637
C          8.45597        27.47508         1.01213
C          7.34428        26.83681         1.48677
C          8.46622        28.90057         0.76789
C         10.64703        10.50064        -0.23548
C         10.70497        12.02148        -0.49442
C          9.65062        12.74159         0.29566
C         10.86755        14.86404        -0.18984
C          9.66412        14.10745         0.39619
C         11.01205        16.22320         0.47101
C          9.74871        16.92972         0.81004
C         11.13433        18.99647         1.35587
C          9.82357        18.35206         1.25553
C         11.18969        20.35303         1.59213
C         10.02684        21.09461         1.94878
C         11.14731        23.20376         1.31870
C          9.98080        22.49102         1.76159
C         11.06164        24.60362         0.98998
C          9.87727        25.32407         1.22558
C         10.87235        27.41538         0.17470
C          9.60607        26.62506         0.49879
C         10.94520        28.88249         0.62964
C          9.61889        29.60970         0.49640
C         10.78521        31.76683         0.06934
C          9.64188        31.04272         0.38305
C         10.84279        33.19200         0.19366
C         13.27258         6.18536         0.14919
C         13.24600         7.66566         0.21111
C         11.98551         8.40938        -0.06562
C         13.20805        10.42788        -0.75673
C         11.95540         9.73680        -0.34159
C         13.22012        11.93003        -0.85093
C         12.06631        12.67403        -0.31712
C         13.41530        14.73447        -0.21178
C         12.15747        14.04478        -0.13805
C         13.41768        16.24829        -0.15502
C         12.22468        16.82770         0.58115
C         13.68719        18.81945         1.40141
C         12.34941        18.17404         1.19345
C         13.70714        20.33127         1.55489
C         12.43777        21.04657         1.08116
C         13.57911        23.25856         0.96827
C         12.40519        22.54395         1.24464
C         13.47289        24.60168         0.49877
C         12.23363        25.24315         0.44261
C         13.44731        27.41799        -0.06519
C         12.16576        26.67253         0.05778
C         13.40244        28.90827        -0.07127
C         12.06715        29.57511        -0.14191
C         13.21772        31.86645        -0.83285
C         12.00031        31.04110        -0.39801
C         13.34643        33.17565        -0.03416
C         12.03117        33.90933         0.12949
C         13.32022        35.96819         0.57844
C         12.10164        35.28848         0.46808
C         13.38057        37.28901         1.15746
C         15.69596         6.13977        -0.38433
C         14.40317         5.50239        -0.13897
C         15.88872         7.57483         0.08898
C         14.55587         8.37808         0.11571
C         15.78266        10.53443        -0.54330
C         14.52020         9.72549        -0.55826
C         15.80375        11.87451        -1.26769
C         14.52208        12.67394        -1.04395
C         15.85763        14.75082        -0.58735
C         14.60483        14.07668        -0.57519
C         15.91146        16.12872        -0.14824
C         14.77845        16.81886         0.21084
C         16.14956        18.92943         0.67068
C         14.97958        18.04593         1.09574
C         16.30216        20.29487         1.39282
C         14.98508        21.10913         1.55157
C         16.14307        23.35308         0.88775
C         14.90197        22.68502         1.48131
C         15.99361        24.79070         0.41687
C         14.67020        25.23981        -0.17392
C         15.81291        27.45941        -0.78813
C         14.61173        26.75252        -0.25551
C         15.79491        28.95682        -0.98107
C         14.60094        29.69260        -0.48419
C         15.75256        31.83256        -0.77407
C         14.55565        31.14640        -0.75620
C         15.78322        33.28570        -0.62591
C         14.46951        34.06284        -0.62022
C         15.76074        36.01544         0.29312
C         14.55317        35.35673         0.15669
C         15.81444        37.34358         0.88827
C         14.56831        37.93338         1.33201
C         18.07739         6.01351        -1.30396
C         16.73555         5.43773        -0.89834
C         18.06604         7.54389        -1.37147
C         16.92302         8.29661        -0.79104
C         18.28499        10.44470        -1.08465
C         17.06279         9.77004        -0.59994
C         18.29732        11.87761        -1.09287
C         17.08195        12.61861        -0.97467
C         18.33984        14.70574        -0.96452
C         17.08858        14.01756        -0.84045
C         18.30346        16.22268        -0.91393
C         17.28091        16.72542         0.11875
C         18.52457        18.91339        -0.01367
C         17.28242        18.25470         0.21394
C         18.63178        20.37259         0.19279
C         17.48743        21.10045         0.81175
C         18.43841        23.24134        -0.29254
C         17.38437        22.58261         0.56713
C         18.41772        24.72443        -0.39935
C         17.21302        25.51936        -0.03406
C         18.29545        27.53228        -1.00222
C         17.13309        26.83828        -0.70212
C         18.28377        28.99089        -1.16292
C         17.06340        29.69696        -1.03253
C         18.25258        31.80879        -0.83414
C         17.03716        31.10772        -0.86245
C         18.27379        33.19915        -0.27900
C         16.96763        33.94240        -0.41224
C         18.22041        36.00509         0.06505
C         17.00590        35.35290        -0.05803
C         18.25140        37.49435         0.31171
C         17.00894        38.01257         0.98009
C         20.42632         6.23650        -0.49601
C         19.21873         5.58549        -0.42801
C         20.64568         7.37989        -1.48217
C         19.37254         8.25541        -1.66822
C         20.67820        10.40354        -1.51385
C         19.45317         9.70509        -1.32876
C         20.73129        11.80971        -1.51697
C         19.52553        12.56862        -1.30501
C         20.73263        14.74025        -1.66821
C         19.49839        14.00060        -1.30194
C         20.84075        16.17018        -1.20417
C         19.65596        16.85647        -0.67210
C         20.97802        18.96875        -0.51337
C         19.71130        18.22310        -0.41464
C         20.98515        20.33246        -0.51658
C         19.66996        21.07204        -0.67154
C         20.90030        23.28577        -0.59659
C         19.75214        22.56161        -0.42694
C         20.91680        24.75133        -0.70585
C         19.65993        25.48192        -0.63151
C         20.80180        27.55067        -1.28942
C         19.56880        26.82902        -0.92227
C         20.77008        29.04934        -1.43533
C         19.49023        29.73491        -1.22825
C         20.72697        31.89381        -1.16812
C         19.49642        31.14738        -1.06205
C         20.60566        33.38231        -1.45016
C         19.47659        34.01511        -0.67108
C         20.72596        36.02092        -0.05203
C         19.47291        35.34575        -0.27654
C         20.71811        37.25067         0.71508
C         19.51829        37.90326         0.99399
C         22.80315         6.36138         0.19013
C         21.54589         5.73230         0.22408
C         22.89258         7.69290        -0.42671
C         21.85726         8.23150        -1.12433
C         23.21707        10.34522        -1.62528
C         21.90874         9.58341        -1.83183
C         23.22045        11.82785        -1.70267
C         21.99856        12.49558        -1.73326
C         23.29531        14.67581        -2.11192
C         21.97932        13.94777        -1.98017
C         23.35144        16.09432        -1.60562
C         22.19181        16.76339        -0.95750
C         23.48245        18.94901        -1.02272
C         22.28600        18.20461        -0.42032
C         23.54328        20.40050        -0.70232
C         22.24592        21.10206        -0.38579
C         23.47366        23.34240        -0.80467
C         22.21227        22.60093        -0.46856
C         23.32416        24.72792        -1.33829
C         22.08159        25.43820        -0.98260
C         23.29490        27.66824        -1.38449
C         22.10392        26.93561        -0.82671
C         23.26628        29.07282        -1.36879
C         22.02685        29.79122        -1.26950
C         23.22497        31.93056        -1.20239
C         21.97757        31.20922        -1.22961
C         23.23012        33.40654        -1.37413
C         21.94395        34.27447        -1.45832
C         23.15662        36.06405        -0.13412
C         21.95089        35.40539        -0.42010
C         23.17155        37.23961         0.69944
C         21.95765        37.78478         1.15678
C         25.24570         6.36149         0.67607
C         23.94167         5.75767         0.74871
C         25.34515         7.66612         0.17072
C         24.11513         8.49623        -0.05519
C         25.57076        10.48619        -0.59277
C         24.37294         9.68650        -0.95467
C         25.61975        11.89627        -0.95412
C         24.47250        12.54433        -1.52490
C         25.74548        14.66988        -1.58481
C         24.54834        13.94194        -1.77450
C         25.82339        16.11544        -1.93847
C         24.51589        16.91140        -2.14336
C         25.82732        19.05711        -1.94161
C         24.54987        18.32811        -1.57651
C         25.87147        20.51207        -1.53335
C         24.70434        21.19957        -1.17363
C         25.88281        23.32433        -1.52451
C         24.70759        22.60684        -1.16828
C         25.85867        24.77690        -1.60938
C         24.55408        25.47291        -1.75524
C         25.80577        27.68730        -1.54162
C         24.52155        26.99010        -1.94779
C         25.76718        29.13102        -1.40797
C         24.50946        29.81709        -1.36136
C         25.69678        31.93026        -0.79716
C         24.44430        31.22972        -1.17680
C         25.72451        33.43438        -0.65330
C         24.50170        34.16112        -1.11921
C         25.68976        36.20552        -0.25749
C         24.42009        35.68058        -0.87842
C         25.65006        37.32997         0.58672
C         24.40148        37.85825         1.02103
C         27.70160         6.27990         1.11472
C         26.42513         5.65273         1.07354
C         27.71553         7.78812         0.97234
C         26.69390         8.28719        -0.06345
C         27.85946        10.52171         0.31307
C         26.64072         9.80263        -0.08012
C         27.94118        11.97758        -0.06709
C         26.79787        12.63075        -0.72626
C         28.09673        14.74841        -0.70810
C         26.90067        14.02206        -1.04493
C         28.21028        16.15707        -0.97430
C         27.08095        16.86253        -1.62137
C         28.29989        19.06771        -1.37724
C         26.99045        18.33082        -1.24089
C         28.35212        20.44059        -1.51505
C         27.10025        21.20235        -1.60950
C         28.38020        23.33482        -1.87951
C         27.10462        22.61028        -1.65698
C         28.33339        24.83416        -1.72604
C         27.02127        25.52151        -1.58853
C         28.30186        27.68865        -1.68341
C         26.98683        26.96815        -1.52758
C         28.24854        29.14936        -1.28956
C         26.99111        29.85139        -1.28802
C         28.16967        31.99986        -0.94486
C         26.98692        31.25775        -1.00530
C         28.20295        33.42734        -0.75529
C         27.00896        34.14163        -0.72608
C         28.20451        36.16396         0.00891
C         27.00260        35.65798        -0.75685
C         28.11778        37.37608         0.75213
C         26.86065        37.95887         1.00828
C         30.24396         6.15905         1.17880
C         28.86339         5.59239         1.40094
C         30.28593         7.65632         0.98336
C         29.08009         8.38603         0.70034
C         30.37920        10.42107         0.18725
C         29.11206         9.73988         0.44312
C         30.40519        11.90102         0.15158
C         29.27494        12.61695        -0.11781
C         30.44773        14.77105         0.02338
C         29.28460        14.07318        -0.23958
C         30.41320        16.26909         0.15471
C         29.35027        16.88192        -0.70225
C         30.68406        19.04951        -0.63644
C         29.56520        18.26224        -1.27353
C         30.72759        20.44351        -0.86614
C         29.61376        21.13422        -1.38413
C         30.59454        23.32539        -0.62191
C         29.73506        22.60507        -1.72104
C         30.71856        24.81517        -0.85454
C         29.54062        25.56007        -1.24992
C         30.65327        27.65935        -0.62081
C         29.47856        26.92439        -1.12592
C         30.65909        29.15636        -0.69840
C         29.42803        29.84243        -1.12883
C         30.74876        32.04677        -1.13225
C         29.43700        31.31014        -1.21937
C         30.72298        33.44058        -0.61484
C         29.48205        34.10526        -0.53843
C         30.59770        36.01033         0.56820
C         29.42180        35.44596        -0.01670
C         30.52505        37.29382         1.21227
C         29.30114        37.94185         1.31649
C         32.45050         6.40661         2.32983
C         31.29894         5.71572         2.17123
C         32.66672         7.70990         1.70814
C         31.51657         8.30736         1.05332
C         32.96140        10.38703         0.65331
C         31.66365         9.64816         0.48055
C         32.94203        11.90694         0.63252
C         31.60292        12.61301         0.73830
C         32.74167        14.84847         1.02293
C         31.75500        14.02375         0.16315
C         33.02993        16.19944         0.33613
C         31.75034        16.97322         0.10705
C         32.88302        19.13075         0.63422
C         31.78279        18.34755        -0.05245
C         33.09260        20.52155         0.11511
C         32.04916        21.17420        -0.75550
C         33.09374        23.34663        -0.17832
C         31.92146        22.64420        -0.45116
C         33.11935        24.78099        -0.26490
C         31.91813        25.48801        -0.62668
C         33.11840        27.64034        -0.46624
C         31.94939        26.94518        -0.60328
C         33.13878        29.11622        -0.13326
C         31.94644        29.88655        -0.68728
C         33.25978        31.95850        -0.85933
C         31.97442        31.23312        -0.89419
C         33.25889        33.43400        -0.34804
C         31.91826        34.04985        -0.12504
C         33.01592        35.90790         1.09814
C         31.83310        35.31148         0.51069
C         32.90866        37.19804         1.73438
C         31.72222        37.86259         1.78722
C         33.86879         8.39089         1.83478
C         35.22025        10.48426         1.63303
C         34.07643         9.74137         1.36660
C         35.27514        11.92643         1.49652
C         34.08914        12.62085         1.19934
C         35.29366        14.82541         1.62514
C         33.99802        14.06622         1.42651
C         35.33209        16.27829         1.34898
C         34.15736        16.98229         0.97013
C         35.36901        19.09133         1.09507
C         34.17251        18.36993         0.83808
C         35.38180        20.52227         1.02259
C         34.21308        21.22323         0.49065
C         35.41878        23.38952         0.65570
C         34.28997        22.66253         0.26634
C         35.48556        24.79776         0.40808
C         34.33853        25.46252        -0.09487
C         35.70007        27.62743        -0.29864
C         34.39562        26.89531        -0.45692
C         35.70404        29.10538        -0.16466
C         34.47634        29.78663        -0.40168
C         36.10879        32.08778         0.17283
C         34.44988        31.12754        -0.75778
C         35.64224        33.34561         0.68943
C         34.42509        33.97244         0.42620
C         34.22122        35.22865         1.08775
C         36.48974        12.66348         1.73137
C         37.76184        14.81280         1.77150
C         36.55663        14.05948         1.67261
C         37.77505        16.22122         1.75420
C         36.54656        16.96124         1.51255
C         37.77757        19.10627         1.60922
C         36.56733        18.38449         1.39970
C         37.76517        20.52172         1.59610
C         36.55418        21.22032         1.31996
C         37.78582        23.43067         1.63918
C         36.43978        22.70796         1.55768
C         37.88967        24.86952         1.22056
C         36.72117        25.54179         0.59527
C         38.17407        27.56930         0.09854
C         36.85148        26.85122         0.20553
C         38.02829        28.97650         0.62411
C         36.89695        29.74272         0.35542
C         36.86806        31.13410         0.80883
C         38.97652        16.96813         1.90846
C         40.20680        19.10908         2.02527
C         38.99728        18.37006         1.85810
C         40.22798        20.49933         1.96953
C         39.00541        21.24844         1.78083
C         40.29283        23.35146         1.74239
C         39.03827        22.64348         1.72462
C         40.37001        24.71450         1.45702
C         39.23030        25.49407         1.06363
C         39.33561        26.79678         0.65602
C         41.46216        21.23201         2.10592
C         41.49495        22.58951         1.98720
O         13.02305        18.17966         2.53041
O         25.55711        32.58790         0.53299
O         33.43132        33.09014        -1.75459
O         13.87996         9.74130        -1.87071
O         13.59795        12.48295        -2.16404
O          9.44368        18.03275        -0.12432
O          9.19948        19.27723         3.42083
O         23.14863        15.96279        -0.15540
O         14.30378        29.45726         0.95326
O         15.54497        28.07278        -2.11241
O         27.64534        11.55707         1.33193
O         35.64044        31.74625        -1.12680
O         33.28936        11.14123        -0.54944
O         34.42271        14.48024         2.77882
O         20.55160        15.82669        -2.62926
O         10.67869        15.00877        -1.58227
O         13.89349         8.29403         1.40073
O         22.56913        14.31385        -3.29047
O         20.78983        28.12235        -2.61161
O         26.82129        16.44530        -2.98041
O         19.18931         8.39709        -3.39899
O         17.24820        23.27904         1.84713
O         11.25721        28.88590         1.99604
O         30.40934        28.45220         0.61778
O         24.16515        33.76349        -2.46873
O         31.15287         9.76496        -0.88054
O         24.27843        17.12337        -3.51254
O         11.35428        27.05832        -1.15374
O         37.69183        24.51097         2.64538
O         24.25041         9.60077        -2.40810
O         35.24021        27.17993        -1.64265
O          8.25376        25.30006         3.10574
O         23.03619        23.23678         0.58282
O         18.70811        20.81081         1.59173
O         18.19717         9.12442        -3.61810
O         16.68979        25.67397         1.33928
O         14.29945        20.72908         2.79837
O         23.14425        20.66683         0.68099
O         18.00663        23.84230        -1.55045
O         16.57119        10.36155         0.65400
O         21.97579        34.99106        -2.67046
O         28.41713        24.19575        -3.06401
O         23.68831        24.81487        -2.76360
O         12.41815        20.91600        -0.32432
O         30.13277        31.83384        -2.43701
O         16.50214         7.54062         1.33825
O         11.68186        30.04423        -1.46185
O         16.92600         7.96684        -2.21132
O         14.86509        23.14682         2.85045
H         15.77407        23.06105         3.21732
O         14.17717        34.47919        -1.97010
H         13.85707        33.69344        -2.47531
O         17.71857        16.25201         1.41244
H         17.02856        16.54598         2.06253
O         26.69621        18.30205         0.18605
H         26.65993        19.22446         0.51801
O          9.08575        26.07502        -0.75376
H          9.83129        26.12190        -1.40664
O         20.96186         6.75061        -2.74254
H         21.29041         7.46713        -3.33908
O         13.16394        16.58808        -1.56271
H         12.30616        16.14459        -1.81371
O         18.28877        38.13881        -1.02348
H         17.52691        37.79177        -1.53574
O         10.14303        10.32148         1.09909
H         10.34151         9.40942         1.39571
O         23.81227         9.12723         1.23978
H         23.88921         8.44245         1.93798
O         15.43151        17.48100         2.37449
H         15.59720        18.25232         2.97261
O         33.57490        15.94304        -1.00875
H         33.68380        16.80900        -1.45803
O         30.66049         5.56998        -0.10755
H         31.45038         6.06324        -0.41631
O         32.33749        19.32027         1.99652
H         32.99360        19.84415         2.50522
O         13.79862        32.82686         1.29722
H         13.12456        32.25948         1.72829
O         19.20599        20.92328        -2.04081
H         19.64084        21.59186        -2.60998
O         32.96960        29.18317         1.32349
H         32.04735        28.86851         1.50601
O         29.80691        23.14342         0.60192
H         30.32957        23.49070         1.35557
O         32.22780        13.77566        -1.17185
H         32.55590        14.61647        -1.57029
O         18.45413        33.00543         1.18118
H         17.62130        32.62045         1.53162
O         29.91534        16.52798         1.52785
H         30.60268        16.16283         2.14258
O         35.83325        22.79227         2.88749
H         36.18238        23.62166         3.29479
O         17.86839        16.68898        -2.21518
H         18.58195        16.46339        -2.85752
O         26.01709        19.04152        -3.36201
H         25.43683        18.30423        -3.73563
O         31.33411        12.63807         2.16055
H         30.55648        13.21451         2.32185
O         30.00102        18.00946        -2.66775
H         29.20591        17.75820        -3.18874
O         28.53735        27.72203        -3.13506
H         27.70521        28.00302        -3.57338
O         14.69808        24.71914        -1.53185
H         13.89127        25.01786        -2.00229
O         30.46973        22.71774        -2.95787
H         29.99583        23.38969        -3.51096
O         27.16073         7.85775        -1.37118
H         26.52146         8.16859        -2.04731
O         21.82477         9.29373        -3.26467
H         22.75276         9.23669        -3.59253
O         20.13447        33.40013        -2.82154
H         20.71242        34.10476        -3.26395
O         16.66648        19.90731         2.73795
H         17.65466        19.94169         2.78717
O         38.45320        27.69878        -1.34227
H         37.61850        27.95491        -1.79172
O         24.46320        27.22353        -3.39099
H         23.87272        26.52801        -3.76424
O         32.05480        15.15938         2.25799
H         32.74425        15.14597         2.96951
O         18.34930         5.54416        -2.64828
H         17.73564         6.01792        -3.25003
O         32.61357        21.13161        -2.11714
H         31.99012        21.63463        -2.69996
O          6.11986        19.93205         4.46032
H          7.00420        19.69492         4.82115
O         24.27002        36.30583        -2.18522
H         23.45118        35.86324        -2.59700
O         22.11791        27.18040         0.63013
H         22.75058        26.55783         1.04765
O         10.41751        12.26418        -1.89635
H         10.47273        13.26080        -2.02967
O          8.01719        21.48791         4.38298
H          7.32632        22.08042         4.74768
O         27.12749        36.10437        -2.15080
H         26.21315        36.17388        -2.52349
O         22.53416        18.10556         0.99898
H         23.21693        17.40849         1.12848
O         15.90090        11.55893        -2.67582
H         14.97718        11.51453        -3.02621
O         12.97528        32.17520        -2.22999
H         12.56335        31.37267        -2.62875
O         27.25525         8.31739         2.24540
H         27.92372         8.10713         2.92985
H          5.31094        18.49845         2.29708
H          4.13848        20.57179         2.75135
H          4.13618        22.92045         2.12951
H          5.25155        24.98612         1.61518
H          7.60648        14.21771         1.09286
H          6.43473        16.33013         1.71661
H          6.43609        27.41513         1.71914
H          7.50614        29.43563         0.85310
H          9.90950        10.06018        -0.96741
H          8.83816        12.16489         0.76421
H          8.71994        31.59631         0.62560
H          9.91200        33.72551         0.44334
H         12.32386         5.64474         0.28887
H         11.04198         7.87885         0.14953
H         11.17196        35.81145         0.74226
H         12.44147        37.76167         1.48115
H         14.36201         4.40526        -0.23093
H         14.59792        38.93405         1.78735
H         16.59144         4.37376        -1.14853
H         17.03526        39.03023         1.39924
H         19.09627         4.72882         0.25148
H         19.53040        38.81852         1.60568
H         21.42713         4.79782         0.79319
H         21.96688        38.69922         1.76650
H         23.84671         4.75455         1.19001
H         24.39572        38.76290         1.64630
H         26.34196         4.58432         1.32458
H         26.80129        38.87763         1.60965
H         28.80675         4.50322         1.56194
H         29.22982        38.89569         1.85996
H         33.24928         6.00838         2.97452
H         31.17674         4.73554         2.65677
H         33.81480        37.63647         2.17701
H         31.65277        38.84543         2.27526
H         34.69437         7.90387         2.37678
H         36.08061         9.98564         2.10585
H         36.28173        33.82880         1.44612
H         35.08545        35.67915         1.59927
H         37.41973        12.09412         1.88209
H         38.71504        14.27443         1.88623
H         38.89578        29.46104         1.09784
H         37.40995        31.38720         1.73193
H         39.91902        16.42677         2.08136
H         41.14639        18.56115         2.19248
H         41.35863        25.19788         1.44130
H         40.32945        27.26477         0.58556
H         42.38936        20.66719         2.28134
H         42.44988        23.13045         2.05732
