         490
 CSIRO Nanostructure Databank - Neutral Graphene Oxide Data Set
C         37.98892        50.40786         2.63825
C         36.84155        51.11587         2.96377
C         38.12578        53.15965         3.05419
C         36.91102        52.50176         3.17218
C         40.42170        48.92529         1.95177
C         40.44377        50.31846         2.15520
C         39.23989        51.05564         2.51132
C         40.59043        53.14422         2.61290
C         39.31234        52.46019         2.72552
C         40.69508        54.54572         2.83574
C         42.79856        48.87773         1.42967
C         41.57820        48.21957         1.62936
C         42.84573        50.28247         1.61075
C         41.68476        51.00547         2.01414
C         43.03223        53.09767         2.21722
C         41.76264        52.42235         2.27894
C         43.09093        54.53088         2.35143
C         41.88672        55.21539         2.67968
C         44.86836        46.21562        -0.25640
C         43.90885        46.75726         0.51213
C         45.11565        48.94308         0.43658
C         44.09091        48.09052         1.20654
C         45.26508        50.29161         1.08999
C         44.10712        50.98950         1.49291
C         45.51515        52.97526         1.94877
C         44.19775        52.34848         1.90410
C         45.56197        54.56719         1.96311
C         44.28234        55.26044         2.04041
C         45.45910        57.31468         1.42538
C         44.30337        56.66073         1.79635
C         47.77566        44.17235         0.89438
C         47.91969        45.59082         1.13452
C         46.15407        46.90670        -0.53789
C         47.63211        48.63164         0.63941
C         46.41376        48.16414         0.24239
C         47.73034        50.04943         1.06006
C         46.53456        50.89362         1.13909
C         47.87772        52.96535         1.06939
C         46.67766        52.27119         1.41735
C         47.85866        54.42717         0.92659
C         46.70805        55.19549         1.30930
C         47.76823        57.27728         0.49836
C         46.65781        56.60346         1.07873
C         47.98297        58.67682         0.66173
C         49.78006        44.20280        -0.54045
C         48.66070        43.50483         0.12133
C         49.85389        45.71966        -0.40023
C         48.84020        46.36687         0.45870
C         50.11464        48.55987         0.13982
C         48.95390        47.83189         0.82064
C         50.14720        49.98156         0.17571
C         49.05331        50.76317         0.79068
C         50.11137        52.85754         0.02040
C         48.98427        52.22067         0.60416
C         49.98630        54.28390        -0.33539
C         48.88494        55.06004         0.21466
C         50.03459        57.17911        -0.62971
C         48.72739        56.45920        -0.32964
C         49.87784        58.64450        -0.96171
C         49.03166        59.33575         0.08287
C         52.31257        41.35479        -0.77251
C         51.10265        42.09250        -0.66593
C         52.25875        44.21744        -1.24210
C         51.03552        43.46396        -0.76646
C         52.31535        45.70737        -0.92207
C         51.16618        46.41408        -0.56820
C         52.29703        48.57553        -1.15674
C         51.18621        47.84262        -0.42837
C         52.42607        50.02107        -0.76671
C         51.28945        50.70944        -0.29120
C         52.56040        52.90515        -0.41018
C         51.26761        52.15006        -0.29074
C         52.47125        54.31632        -0.91885
C         51.19638        55.02239        -0.88064
C         52.46258        57.16915        -1.18368
C         51.20464        56.50539        -0.85910
C         52.52969        58.68077        -1.19343
C         51.17382        59.36325        -1.27720
C         52.22868        61.31210        -2.32085
C         51.09372        60.64201        -1.71695
C         54.85743        39.87968        -0.49504
C         54.79161        41.31317        -0.63848
C         53.55034        41.99611        -0.80482
C         54.79429        44.23889        -0.90692
C         53.51556        43.48976        -0.79214
C         54.79376        45.69183        -1.19851
C         53.58648        46.39816        -1.11158
C         54.80848        48.53328        -1.38975
C         53.61760        47.84011        -1.18332
C         54.82764        49.99083        -1.40868
C         53.63618        50.72198        -1.08052
C         54.87884        52.84652        -1.27826
C         53.68555        52.13102        -1.01866
C         54.87515        54.28238        -1.31490
C         53.63718        55.00592        -1.22422
C         54.87163        57.07670        -2.02805
C         53.61049        56.45222        -1.42713
C         54.89824        58.60191        -2.03193
C         53.49033        59.13091        -2.32451
C         55.36196        61.62291        -2.68840
C         53.33566        60.59186        -2.60588
C         55.45661        63.02636        -2.71151
C         57.28204        39.99991         0.09800
C         56.01977        39.23975        -0.21159
C         57.26232        41.37382        -0.52044
C         56.05319        42.01616        -0.69486
C         57.30556        44.19548        -1.18066
C         56.03334        43.44233        -1.11945
C         57.26007        45.66431        -1.29474
C         56.05802        46.36591        -1.36573
C         57.27376        48.49237        -1.68231
C         56.07548        47.81732        -1.51404
C         57.31751        49.98345        -1.90116
C         56.03270        50.69837        -1.56535
C         57.35217        52.81483        -1.38912
C         56.08134        52.10990        -1.47938
C         57.33741        54.27459        -1.31076
C         56.10870        54.99747        -1.40909
C         57.31858        57.14361        -1.41707
C         56.12063        56.41090        -1.52386
C         57.31464        58.58549        -1.50516
C         56.09357        59.31295        -1.85105
C         57.39064        61.45987        -1.43186
C         56.23866        60.78879        -1.97177
C         57.46976        62.89322        -1.38684
C         56.45568        63.66259        -2.00423
C         59.82570        37.16387        -0.01487
C         58.61595        37.85498        -0.08579
C         59.80542        39.97692        -0.18440
C         58.57518        39.24828        -0.14139
C         59.81454        41.38877        -0.36754
C         58.56944        42.04100        -0.92508
C         59.81656        44.26477        -0.86613
C         58.52240        43.54258        -0.56690
C         59.81050        45.58294        -1.26890
C         58.54874        46.27965        -1.61023
C         59.86244        48.48302        -1.62827
C         58.56242        47.77957        -1.82424
C         59.80087        49.96972        -1.64621
C         58.50330        50.59614        -1.14254
C         59.75531        52.78819        -0.70710
C         58.52466        52.10088        -1.24686
C         59.83327        54.25007        -1.18512
C         58.52651        55.00222        -1.16988
C         59.79131        57.12740        -1.08884
C         58.53540        56.41607        -1.20536
C         59.77495        58.57653        -1.06324
C         58.53796        59.27591        -1.22175
C         59.75392        61.37966        -0.73643
C         58.55144        60.70266        -1.08044
C         59.74985        62.79318        -0.48206
C         58.60752        63.54372        -0.78811
C         59.67763        65.57731         0.06603
C         58.66197        64.98386        -0.59328
C         62.35779        35.73369         0.36897
C         62.30515        37.14384         0.25245
C         61.05443        37.85056         0.06208
C         62.26347        40.01681         0.07840
C         61.04244        39.27242        -0.03978
C         62.22964        41.44322         0.02509
C         61.01875        42.13748        -0.27149
C         62.23873        44.33661        -0.48520
C         61.03745        43.56910        -0.54016
C         62.28599        45.66250        -0.93747
C         61.10149        46.28140        -1.64526
C         62.33559        48.51885        -1.45817
C         61.05140        47.80701        -1.51257
C         62.35622        49.98030        -1.49424
C         61.07871        50.73285        -1.56579
C         62.24188        52.85406        -1.03021
C         61.07666        52.13642        -1.08829
C         62.26291        54.26315        -0.68016
C         60.94827        54.98399        -0.45134
C         62.19691        57.16548        -0.53012
C         60.97083        56.43566        -0.85756
C         62.31552        58.58588        -1.01290
C         60.98905        59.29654        -0.86538
C         62.27756        61.45964        -0.71731
C         60.98503        60.67452        -0.68180
C         62.17081        62.80128        -0.02335
C         60.94313        63.43454         0.02985
C         62.10273        65.54943         0.78690
C         60.79446        64.78279         0.69595
C         62.07890        66.89127         1.16527
C         64.78780        35.76900         0.61687
C         63.55010        35.06841         0.57893
C         64.76154        37.17195         0.48045
C         63.52557        37.88189         0.35327
C         64.68298        40.07709         0.67080
C         63.47688        39.31435         0.31828
C         64.73413        41.53134         0.47308
C         63.43851        42.22964         0.34904
C         64.75572        44.48566         0.18430
C         63.42966        43.72133         0.15794
C         64.72049        45.73838        -0.66097
C         63.53239        46.39009        -0.96373
C         64.81983        48.52739        -1.39982
C         63.52880        47.80604        -1.33463
C         64.80593        50.03432        -1.39549
C         63.51003        50.71617        -1.37889
C         64.78616        52.93135        -1.09616
C         63.51904        52.22589        -1.55537
C         64.73498        54.29534        -0.79598
C         63.45474        54.94515        -0.58455
C         64.72581        57.12895        -0.24663
C         63.45456        56.39152        -0.29367
C         64.72560        58.53027        -0.21568
C         63.52237        59.29505        -0.43673
C         64.69531        61.41673        -0.00251
C         63.50814        60.67796        -0.31564
C         64.63687        62.79423         0.22972
C         63.39022        63.49172         0.31552
C         64.57785        65.61340         0.90301
C         63.35235        64.88097         0.65092
C         64.51276        67.01652         1.23242
C         63.25984        67.62041         1.36200
C         67.28755        32.96132         1.15408
C         66.13881        33.64555         0.86638
C         67.23588        35.83841         1.03320
C         66.04858        35.07867         0.84752
C         67.28190        37.22140         0.81951
C         66.05791        37.91684         0.27953
C         67.23770        40.10639         0.68406
C         65.97840        39.33428         0.79036
C         67.19864        41.46840         0.35684
C         65.95693        42.18908         0.29050
C         67.21644        44.23248        -0.21459
C         66.00087        43.61488        -0.00688
C         67.27315        45.64299        -0.63940
C         66.02076        46.38441        -0.92612
C         67.22282        48.53457        -0.69353
C         66.07256        47.86123        -0.95350
C         67.23805        50.01338        -0.55506
C         65.97910        50.76506        -0.82780
C         67.24680        52.88835        -0.77270
C         66.03690        52.23332        -0.97709
C         67.24915        54.38750        -0.95772
C         65.94683        55.02889        -0.53820
C         67.14279        57.01546         0.44160
C         65.93208        56.36845        -0.17817
C         67.12170        58.52433         0.30724
C         65.98597        59.22205         0.00273
C         67.17281        61.36412         0.55652
C         66.03417        60.72122        -0.20217
C         67.03129        62.77021         0.95227
C         65.93098        63.57377         0.29523
C         67.02348        65.65151         1.24786
C         65.82084        64.96312         0.87084
C         66.98660        67.07131         1.44378
C         65.74606        67.76614         1.40767
C         66.95247        69.87390         1.68561
C         65.75606        69.16805         1.56189
C         69.87691        31.56738         1.80519
C         69.82978        32.96395         1.67256
C         68.50413        33.65598         1.60461
C         69.74565        35.90206         1.33174
C         68.46279        35.15672         1.50188
C         69.65949        37.36617         1.50242
C         68.46610        37.99944         1.12142
C         69.63259        40.27684         1.36931
C         68.43170        39.43221         0.98638
C         69.72357        41.51255         0.51639
C         68.48770        42.05444        -0.15480
C         69.68514        44.22791        -0.33940
C         68.49194        43.55407        -0.19900
C         69.71352        45.68817        -0.36830
C         68.52796        46.37905        -0.43088
C         69.72419        48.53415        -0.83674
C         68.49385        47.87103        -0.21607
C         69.73292        50.03714        -0.59388
C         68.52268        50.74645        -0.57860
C         69.73517        52.87780        -0.57479
C         68.50354        52.17958        -0.61903
C         69.78864        54.38489        -0.75557
C         68.48393        55.07036        -0.43034
C         69.68829        57.06988         0.28360
C         68.45806        56.37039         0.02047
C         69.65117        58.48465         0.72533
C         68.35278        59.22294         0.71823
C         69.57104        61.38311         1.19579
C         68.34349        60.69879         0.79926
C         69.54170        62.77318         1.46349
C         68.25940        63.49447         1.45159
C         69.45362        65.66293         1.73673
C         68.25212        64.96788         1.41714
C         69.41922        67.07333         1.88683
C         68.20406        67.78094         1.69839
C         69.46022        69.94250         1.72409
C         68.18887        69.21501         1.73918
C         69.51104        71.30856         1.37611
C         72.28077        31.62448         2.01211
C         71.09032        30.89872         1.96898
C         72.25155        33.01358         1.88447
C         71.03941        33.70199         1.71928
C         72.20286        36.02054         1.88906
C         71.04314        35.18211         1.48342
C         72.10517        37.34056         2.11228
C         70.81660        38.13050         2.09208
C         72.09302        40.06521         1.01096
C         70.91329        39.48858         1.43015
C         72.13578        41.38236         0.49975
C         70.94434        42.09938         0.22597
C         72.18611        44.27136        -0.18794
C         70.97052        43.43893        -0.51424
C         72.17729        45.62111        -0.10722
C         70.97840        46.41861        -0.28787
C         72.19546        48.58942        -0.38275
C         70.99879        47.80647        -0.43021
C         72.18096        49.96144        -0.45138
C         70.96526        50.73030        -0.52218
C         72.17680        52.90664        -0.29587
C         70.96144        52.16799        -0.47664
C         72.17671        54.27015        -0.05503
C         70.99191        55.03343        -0.11343
C         72.09943        57.12846         0.76135
C         70.92931        56.40571         0.25839
C         72.10329        58.46159         0.97006
C         70.91709        59.30069         0.55222
C         71.98787        61.42301         1.42815
C         70.81877        60.69703         1.15143
C         71.95781        62.78584         1.70343
C         70.74072        63.51034         1.68360
C         71.88470        65.70056         2.12492
C         70.69263        64.94166         1.87380
C         71.87101        67.03835         2.36484
C         70.59433        67.81674         2.47848
C         71.88407        69.95217         1.91973
C         70.67133        69.25407         1.98691
C         71.91675        71.30503         1.57536
C         70.72624        71.98377         1.30434
O         54.16539        43.99399         0.41686
O         70.52669        35.50174         0.12766
O         68.30502        34.51145         2.80879
O         56.71233        43.61707        -2.41862
O         46.89492        46.54146        -1.44116
O         63.13797        43.17483         1.49435
O         58.59174        46.86178        -2.98451
O         62.60408        56.86112         0.85651
O         60.35313        50.57728        -2.85683
O         66.76845        45.77121        -2.05550
O         50.16667        54.47818        -1.81641
O         65.05200        49.29995        -2.63690
O         65.23157        39.57583         1.99284
O         54.31649        61.10941        -3.46733
O         45.83590        53.74825         3.13790
O         67.21164        62.97721         2.37868
O         49.39759        45.09768        -1.65596
O         68.94232        58.66680         1.99166
O         48.66908        50.34751         2.15550
O         66.31854        50.39201         0.55956
O         58.70718        41.88245        -2.35995
H         57.95485        42.37088        -2.78151
O         66.24069        38.06025        -1.17222
H         66.43017        37.17180        -1.54085
O         68.59871        41.59262        -1.54974
H         69.41832        42.00379        -1.92490
O         60.24057        54.21349        -2.57758
H         59.56349        53.71667        -3.08422
O         49.10068        58.71038        -2.20314
H         48.45820        57.95456        -2.18815
O         58.35870        50.25016         0.25601
H         58.76936        50.97644         0.78748
O         57.58164        50.19945        -3.31338
H         56.95143        49.65796        -3.83262
O         67.28316        54.60582        -2.41544
H         68.20791        54.40174        -2.70789
O         67.01673        56.72920         1.87292
H         67.69663        57.28851         2.32586
O         51.85627        48.59620        -2.57815
H         50.96326        49.00202        -2.60089
O         52.24646        44.12176        -2.70079
H         51.40456        44.52569        -3.00735
O         58.30373        43.64381         0.86729
H         59.08818        43.27140         1.32398
O         59.60027        52.65754         0.73823
H         60.05576        53.42464         1.17460
O         69.35602        40.74430         2.74458
H         69.61260        40.00261         3.34906
O         66.34567        60.92446        -1.62116
H         66.41012        61.90303        -1.75525
O         48.07435        56.26258        -1.65657
H         48.66813        55.63208        -2.13964
O         70.49376        38.38840         3.52114
H         70.18147        37.54460         3.91337
O         47.10526        46.09991         2.09454
H         47.47741        46.96242         2.39838
O         70.31388        67.91942         3.92720
H         69.44573        68.36692         4.02124
O         61.28918        46.02566        -3.07762
H         60.45865        46.32679        -3.51953
O         66.37652        63.73137        -1.10803
H         65.69426        64.26016        -1.57495
O         60.37981        64.52870         2.08411
H         61.08865        64.00105         2.50918
O         62.56854        58.49302        -2.44844
H         62.69537        59.41009        -2.77965
O         60.67054        55.01601         0.98376
H         61.35651        55.61969         1.37525
O         71.03712        43.08432        -1.94200
H         70.99326        43.91936        -2.45565
O         52.99792        58.51006        -3.55801
H         53.30567        59.06473        -4.30717
O         53.16057        59.10948         0.04613
H         52.56957        58.87064         0.79016
O         71.02883        59.51015        -0.89423
H         71.84817        60.02132        -1.06204
O         64.90930        45.01634         1.54426
H         64.40986        44.39678         2.13183
O         63.50358        52.43165        -3.00396
H         62.67776        52.03493        -3.35672
O         44.53251        49.16787        -0.87539
H         45.16806        49.68224        -1.41476
O         69.60303        48.36225        -2.27628
H         70.36494        48.80814        -2.70145
O         49.19331        47.82108         2.26090
H         49.24452        48.76468         2.56467
O         69.99629        54.57466        -2.23086
H         70.21395        55.52271        -2.36703
O         54.83339        56.65323        -3.43959
H         54.00850        57.04977        -3.81765
O         68.58122        48.10599         1.21668
H         67.70297        47.94093         1.61887
O         57.27679        40.22446         1.56413
H         56.49083        40.77492         1.77113
O         44.66158        47.83646         2.51509
H         44.02439        47.30174         3.03228
O         52.96934        53.07956         1.02373
H         53.16120        52.18404         1.37813
O         62.48531        61.75396        -2.15342
H         61.72690        62.30337        -2.44730
H         37.90826        49.32484         2.47602
H         35.87997        50.59242         3.05611
H         38.15071        54.24425         3.22226
H         36.00360        53.06576         3.42860
H         39.48714        48.36111         2.06658
H         39.80648        55.12565         3.11639
H         41.50913        47.12782         1.52480
H         41.90742        56.30194         2.83888
H         44.70682        45.23969        -0.73816
H         42.97674        46.19338         0.67773
H         45.42187        58.40004         1.26056
H         43.38101        57.24645         1.91293
H         46.96830        43.63825         1.41410
H         47.31552        59.23179         1.33900
H         48.57936        42.41279         0.02782
H         49.17079        60.41195         0.26287
H         52.24872        40.25932        -0.73079
H         50.18997        41.51358        -0.46578
H         52.13007        62.34761        -2.67121
H         50.12187        61.15527        -1.73991
H         53.94204        39.28589        -0.62793
H         54.70945        63.59800        -3.27657
H         56.00197        38.14890        -0.08201
H         56.49389        64.75866        -1.99501
H         59.79524        36.06811         0.04197
H         57.68739        37.27007        -0.05722
H         59.65592        66.66676         0.21227
H         57.84626        65.61063        -0.97946
H         61.43451        35.14192         0.31419
H         61.11892        67.40065         1.32397
H         63.53142        33.97712         0.69984
H         63.17852        68.67966         1.63967
H         67.30256        31.86879         1.03614
H         65.25416        33.06147         0.57489
H         66.90954        70.96985         1.74893
H         64.81496        69.73366         1.54377
H         68.94526        30.98529         1.79237
H         68.58467        71.85221         1.14542
H         73.24130        31.10692         2.14001
H         71.10392        29.80502         2.07127
H         73.19992        33.56756         1.90520
H         73.18414        35.53640         2.00820
H         73.00314        37.88347         2.44575
H         73.03954        39.51175         1.09729
H         73.11417        41.81016         0.24461
H         73.14899        43.75056        -0.08222
H         73.12918        46.13881         0.08226
H         73.16478        48.08638        -0.25440
H         73.14424        50.48632        -0.40099
H         73.13394        52.37260        -0.23823
H         73.12606        54.75075         0.22077
H         73.00120        56.55017         1.00879
H         73.00846        58.94283         1.36846
H         72.96476        60.91935         1.40228
H         72.90837        63.29766         1.90101
H         72.85476        65.18387         2.12739
H         72.82012        67.54401         2.59106
H         72.83155        69.44133         2.13808
H         72.87874        71.83313         1.52178
H         70.74696        73.04768         1.03052
