         762
 CSIRO Nanostructure Databank - Neutral Graphene Oxide Data Set
C         22.77952        24.79884         0.79867
C         21.56574        25.56329         0.95027
C         22.78881        27.55248         1.78217
C         21.54742        26.84626         1.39506
C         22.79480        29.09545         1.97564
C         21.57702        29.87057         1.63608
C         22.87402        31.94290         1.20946
C         21.61574        31.15459         1.22914
C         22.94245        33.40015         0.83488
C         21.73967        34.16523         0.44050
C         23.03655        36.00076        -0.57872
C         21.80216        35.40102        -0.11247
C         23.10869        37.25427        -1.18709
C         21.89529        38.03764        -1.34017
C         23.11116        40.01690        -2.14616
C         21.87698        39.31314        -1.78066
C         23.19490        41.54820        -1.99262
C         22.00050        42.27700        -1.55176
C         23.31521        44.29604        -1.16257
C         22.06917        43.58238        -1.18944
C         23.32412        45.72446        -0.96095
C         22.11147        46.45368        -0.84785
C         23.32394        48.53493        -0.71229
C         22.11262        47.83177        -0.71752
C         25.38849        23.31764         0.51813
C         25.28345        24.66756         0.81772
C         24.00855        25.36463         1.00892
C         25.30838        27.13085         2.13684
C         24.07684        26.85533         1.31235
C         25.28592        29.31796         2.29364
C         24.06897        29.87383         1.87684
C         25.38602        31.75324         1.00517
C         24.13635        31.16067         1.29860
C         25.41742        33.03830         0.24775
C         24.30229        34.04913         0.51825
C         25.55281        35.70888        -1.02597
C         24.22169        35.12674        -0.55864
C         25.57049        37.12964        -1.41812
C         24.38590        37.82525        -1.61239
C         25.69967        39.98848        -2.26287
C         24.38153        39.21483        -2.17350
C         25.68513        41.44721        -1.94376
C         24.51948        42.16863        -1.73906
C         25.75585        44.25363        -1.07552
C         24.53654        43.57429        -1.31557
C         25.80681        45.68715        -0.96248
C         24.56019        46.43660        -0.93509
C         25.80899        48.63014        -0.82641
C         24.54013        47.85551        -0.81864
C         25.85411        50.00706        -1.32515
C         27.84265        23.20904         0.83751
C         26.62629        22.61716         0.52404
C         27.88902        24.67271         0.96540
C         26.54644        25.42918         0.93505
C         27.76917        27.47869         1.82850
C         26.51189        26.68810         1.70799
C         27.77689        28.97358         1.90292
C         26.52840        29.79876         1.88660
C         27.90382        31.62803         0.96544
C         26.58899        31.04250         1.22551
C         28.01907        32.79475        -0.01050
C         26.72704        33.58225        -0.26557
C         28.03425        35.70350        -0.75623
C         26.81103        35.03067        -0.63881
C         28.14082        37.06260        -1.16915
C         26.90662        37.73011        -1.66428
C         28.27853        39.90839        -1.94727
C         26.96916        39.18527        -2.04710
C         28.26815        41.41142        -1.87987
C         26.96426        42.03748        -1.46739
C         28.30166        44.14791        -0.63912
C         26.98305        43.45659        -0.92287
C         28.31649        45.65200        -0.64792
C         27.03910        46.35650        -0.90316
C         28.27171        48.48963        -1.55507
C         27.09977        47.83501        -0.88771
C         28.27668        49.95360        -1.73191
C         27.05042        50.64168        -1.60457
C         30.29506        20.34853         1.10616
C         29.11841        21.05751         0.92618
C         30.27323        23.13752         1.43646
C         29.07221        22.46260         1.07137
C         30.27045        24.58497         1.65672
C         29.08087        25.30436         1.57021
C         30.29519        27.49040         2.22238
C         29.02457        26.70513         2.06938
C         30.30637        28.98709         2.16172
C         28.99751        29.76749         2.33251
C         30.28682        31.85062         1.66861
C         29.02116        31.08553         1.54571
C         30.33225        33.23436         1.09587
C         29.14430        33.73955         0.36209
C         30.61734        35.60811        -0.62055
C         29.28659        34.93552        -0.52783
C         30.64446        37.05686        -0.95447
C         29.41470        37.74406        -1.23838
C         30.70448        39.84268        -1.47069
C         29.48838        39.14591        -1.55809
C         30.84677        41.30348        -1.91359
C         29.56216        42.23964        -1.83106
C         30.84841        44.22468        -1.00445
C         29.59549        43.42556        -0.86801
C         30.89245        45.59675        -1.06303
C         29.62882        46.37204        -0.89464
C         30.84131        48.50002        -1.63448
C         29.57358        47.71879        -1.56148
C         30.83251        49.83286        -2.28928
C         29.47284        50.60988        -2.28435
C         30.81721        52.66508        -2.54985
C         29.62113        52.06965        -2.30240
C         32.81729        18.82592         1.42674
C         32.75205        20.22853         1.58603
C         31.50230        20.99398         1.46012
C         32.69911        23.13219         2.02263
C         31.46589        22.40108         1.64640
C         32.73315        24.61458         1.88021
C         31.51383        25.29017         1.85486
C         32.79221        27.43081         2.21943
C         31.53171        26.79286         1.68108
C         32.79413        28.92683         2.30561
C         31.50179        29.64170         2.10406
C         32.87036        31.79165         1.85676
C         31.55701        31.12249         2.01217
C         32.83393        33.25265         1.55833
C         31.65890        33.85779         0.85494
C         33.10355        35.56219        -0.24114
C         31.77885        34.99070         0.09852
C         33.17039        36.96156        -0.92505
C         31.88585        37.72358        -1.05103
C         33.19757        39.77990        -1.61836
C         31.90961        39.11905        -1.28803
C         33.31982        41.24522        -1.49968
C         32.05232        41.95246        -1.21237
C         33.38766        44.16128        -1.01750
C         32.08475        43.43144        -0.91844
C         33.34138        45.59067        -1.43336
C         32.14545        46.28793        -1.33980
C         33.34374        48.41810        -2.13789
C         32.17175        47.75618        -1.54642
C         33.32153        49.80943        -2.32480
C         32.10706        50.56801        -2.32230
C         33.27867        52.67808        -2.91688
C         32.08134        51.95797        -2.61619
C         33.24746        53.91441        -3.60638
C         35.23428        18.80150         1.82971
C         34.02052        18.13789         1.53607
C         35.19053        20.20917         1.96399
C         33.97149        20.89594         1.84551
C         35.24164        23.06049         1.68728
C         33.97911        22.35913         2.07075
C         35.23200        24.57951         1.61462
C         33.98317        25.30930         1.88164
C         35.27805        27.42595         2.05224
C         34.06709        26.71580         2.01285
C         35.29786        28.86546         2.13648
C         34.08152        29.63262         2.17247
C         35.34025        31.77882         2.21307
C         34.04985        31.06451         2.06528
C         35.38649        33.23092         1.81415
C         34.15202        33.97908         1.40913
C         35.53314        35.76297         0.31549
C         34.29237        35.09732         0.45502
C         35.63342        37.07645        -0.33152
C         34.46376        37.66858        -0.85764
C         35.79918        39.74554        -1.52739
C         34.49641        39.00797        -1.45082
C         35.81270        41.22595        -1.59428
C         34.53904        41.89219        -1.49464
C         35.77969        44.00921        -1.93224
C         34.62153        43.35219        -1.28663
C         35.52175        45.30246        -2.47062
C         34.49848        46.16233        -2.07683
C         35.85647        48.31953        -2.80054
C         34.51548        47.58908        -2.51203
C         35.86155        49.83316        -2.80342
C         34.59946        50.55390        -2.44351
C         35.83149        52.77338        -3.05728
C         34.59303        52.07122        -2.63934
C         35.68548        53.99005        -3.69308
C         34.41019        54.55023        -3.99807
C         37.63953        16.12434         0.90940
C         36.61377        16.67770         1.62867
C         37.66595        18.80761         2.23820
C         36.51082        18.08751         1.96170
C         37.70291        20.24305         2.20832
C         36.41559        20.97983         2.41540
C         37.70580        23.05880         1.63888
C         36.51569        22.38240         1.87709
C         37.67769        24.50409         1.54374
C         36.52505        25.23832         1.72954
C         37.81636        27.40112         1.72552
C         36.58521        26.66697         2.20590
C         37.80554        28.81427         1.86434
C         36.57712        29.51214         2.12049
C         37.92805        31.67388         2.18274
C         36.61409        30.96881         2.32366
C         37.93245        33.05928         1.62061
C         36.67166        33.79434         1.32061
C         37.89256        35.97878         1.09840
C         36.68026        35.21005         0.91562
C         38.05182        37.24790         0.35239
C         36.90631        37.74191        -0.36196
C         38.30862        39.81876        -1.03034
C         37.03831        39.01786        -1.10326
C         38.23785        41.34886        -0.97629
C         37.00896        41.95669        -1.62083
C         38.34271        43.99744        -2.43245
C         37.01273        43.35907        -1.96426
C         38.48253        45.55211        -2.36905
C         37.40115        46.34638        -2.88409
C         38.41203        48.50686        -2.46225
C         37.19803        47.70067        -2.66530
C         38.36438        49.96838        -2.24466
C         37.14391        50.63702        -2.70042
C         38.41675        52.87462        -2.30570
C         37.15619        52.14594        -2.77432
C         38.49821        54.37654        -2.27403
C         37.52555        55.23950        -2.97614
C         38.08880        57.13810        -1.57123
C         37.43667        56.57786        -2.71128
C         38.48258        15.90382        -1.81258
C         39.32451        16.59773        -0.91536
C         38.83100        16.80394         0.43729
C         40.60518        18.49678         0.77249
C         39.45844        17.79336         1.20529
C         40.78789        19.82782         1.24975
C         38.88289        20.94050         2.02632
C         40.17866        22.91418         1.16041
C         38.99402        22.32927         1.60802
C         40.15282        24.39022         0.86916
C         38.92192        25.20583         1.16085
C         40.21125        27.34281         1.14192
C         39.00462        26.67946         1.37078
C         40.23736        28.80543         1.20184
C         39.04953        29.52680         1.68130
C         40.39353        31.60542         1.84118
C         39.15258        30.90679         1.85694
C         40.39760        33.05481         1.89881
C         39.19877        33.78088         1.69542
C         40.47782        35.93395         1.49268
C         39.17044        35.22995         1.61648
C         40.50908        37.33306         0.95117
C         39.29589        37.89199         0.32809
C         40.63592        40.06929         0.02888
C         39.48549        39.17128        -0.39204
C         40.83914        41.23559        -0.98426
C         39.55172        42.04265        -1.29298
C         40.82853        44.13057        -1.91303
C         39.56088        43.31549        -1.77857
C         40.77600        45.55485        -1.39439
C         39.60268        46.24644        -1.90529
C         40.73761        48.51100        -1.40988
C         39.66125        47.72342        -2.09549
C         40.48474        49.92308        -1.02910
C         39.40647        50.66380        -1.57660
C         40.25301        52.80553        -0.57163
C         39.38370        52.13143        -1.43568
C         40.21207        54.23943        -0.30935
C         39.34306        55.04679        -1.20487
C         39.43573        56.86799         0.49588
C         38.93123        56.39011        -0.77932
C         38.77438        57.94362         1.11507
C         40.09031        16.15152        -3.56312
C         38.84278        15.71051        -3.14133
C         40.95487        16.82003        -2.66933
C         40.56989        17.15462        -1.35279
C         42.48669        18.93233        -0.90893
C         41.45392        17.92062        -0.36180
C         42.83636        20.04690         0.05300
C         41.61265        20.72609         0.61689
C         42.73217        22.92330         0.73642
C         41.38753        22.21818         0.47986
C         42.74818        24.42640         0.89738
C         41.45687        25.14787         0.70588
C         42.79211        27.34714         0.98586
C         41.47743        26.66175         0.77979
C         42.85040        28.74327         1.22834
C         41.59386        29.52494         1.22051
C         42.87627        31.54238         1.88990
C         41.63639        30.91506         1.69898
C         42.87872        32.98088         2.23101
C         41.63579        33.72243         1.93451
C         43.04705        35.82670         1.41131
C         41.70442        35.08160         1.44468
C         42.98257        37.27080         1.23198
C         41.84454        37.94255         0.67575
C         43.21288        39.91805         0.10572
C         41.90059        39.25633         0.23325
C         43.23707        41.41017         0.01892
C         41.98226        42.09231        -0.43701
C         42.99618        44.25368         0.22353
C         41.76176        43.41907         0.21635
C         42.97221        45.62114        -0.11047
C         41.79784        46.23051        -0.73798
C         42.70171        48.40762         0.25450
C         41.79219        47.72084        -0.71085
C         42.54645        49.86306         0.52353
C         41.30562        50.54261         0.01993
C         42.30932        52.71189         1.00303
C         41.16764        52.01613         0.28876
C         42.16554        54.18156         1.27595
C         40.99069        54.90202         0.64432
C         41.14940        56.97522         2.17084
C         40.59612        56.25050         1.07333
C         40.46028        58.02765         2.80404
C         39.24727        58.48677         2.30670
C         44.47316        16.89210        -3.38766
C         43.35762        17.45875        -2.74201
C         44.80926        19.18817        -1.79624
C         43.49820        18.54207        -1.80954
C         44.99727        20.43688        -1.10945
C         43.89813        21.00784        -0.38438
C         45.14014        23.08127         0.04297
C         43.94699        22.30735         0.14114
C         45.16827        24.46367         0.35636
C         43.99034        25.18598         0.64698
C         45.24304        27.34233         0.75696
C         43.99602        26.61424         0.80585
C         45.29324        28.73429         1.06458
C         44.07841        29.43458         1.35299
C         45.35485        31.52753         1.80298
C         44.12696        30.86125         1.66919
C         45.45185        32.90045         2.36505
C         44.16583        33.72106         2.45073
C         45.11534        36.02092         2.69603
C         44.17210        35.20289         2.16061
C         45.31801        37.42902         2.30990
C         44.15700        38.06608         1.58689
C         45.58784        40.08356         1.16124
C         44.39129        39.27685         0.76966
C         45.38472        41.52412         1.47726
C         44.15693        42.17859         0.93295
C         45.34083        44.37839         0.92951
C         44.16982        43.63778         0.69253
C         45.29537        45.75997         0.72861
C         44.13097        46.38314         0.22113
C         45.15813        48.61568         0.47597
C         44.05435        47.83198         0.28005
C         45.05548        50.05165         0.66526
C         43.77463        50.67471         0.72726
C         44.84985        52.81599         1.13511
C         43.66933        52.06388         0.93558
C         44.72789        54.20590         1.61477
C         43.43357        54.92358         1.58169
C         44.66276        56.99474         2.15171
C         43.46547        56.18912         2.13014
C         45.74497        17.39577        -3.18521
C         47.22710        19.22331        -2.38810
C         45.92681        18.58897        -2.43772
C         47.34392        20.52970        -1.83252
C         46.22547        21.11058        -1.16005
C         47.45210        23.26281        -0.93537
C         46.42301        22.34142        -0.30442
C         47.66735        24.57562        -0.27544
C         46.45014        25.21461         0.33749
C         47.63236        27.41525         0.16857
C         46.45178        26.68077         0.43356
C         47.67235        28.81600         0.46739
C         46.53441        29.42823         1.01528
C         47.84946        31.58155         1.25657
C         46.66234        30.74747         1.73094
C         47.95852        32.88557         1.68727
C         46.86424        33.53741         2.42534
C         47.96041        35.80728         2.06567
C         47.04719        34.98785         2.65921
C         47.88209        37.27672         2.08318
C         46.68359        37.95842         2.09397
C         47.88137        40.20119         2.35768
C         46.75282        39.40148         1.76361
C         47.81576        41.63933         1.84559
C         46.63296        42.29132         1.66951
C         47.81935        44.49777         1.42931
C         46.51168        43.79731         1.69325
C         47.78738        45.91604         1.19998
C         46.44453        46.61834         1.21529
C         47.69008        48.72127         0.62051
C         46.47336        47.88635         0.37030
C         47.55466        50.18876         0.51395
C         46.23220        50.83009         0.77037
C         47.35938        53.02406         1.17896
C         46.14482        52.22042         1.03536
C         47.32066        54.37855         1.42576
C         46.03070        55.02920         1.76009
C         45.87368        56.48256         1.80644
C         49.62469        19.24966        -2.87968
C         48.40100        18.60593        -2.89261
C         49.74034        20.60080        -2.45015
C         48.58587        21.22544        -1.95850
C         49.86805        23.41300        -1.74726
C         48.60023        22.67048        -1.68661
C         49.89127        24.78218        -1.38811
C         48.78056        25.41611        -0.74454
C         49.92545        27.58362        -0.80046
C         48.78898        26.78099        -0.42601
C         49.90409        28.99911        -0.58494
C         48.85031        29.60713         0.11997
C         50.04210        31.81452         0.11344
C         48.91039        30.99460         0.48200
C         50.23867        33.09852         0.62044
C         49.23495        33.69252         1.57227
C         50.35553        35.89807         1.30603
C         49.02461        35.17211         1.19045
C         50.37950        37.27095         1.82933
C         49.12495        38.05700         1.94630
C         50.40257        40.21996         1.98227
C         49.16856        39.43983         2.04276
C         50.33584        41.63581         1.97090
C         49.09202        42.31303         1.42748
C         50.23653        44.61577         1.67265
C         49.01002        43.81834         1.52718
C         50.23798        46.02303         1.21347
C         48.96156        46.65283         1.01573
C         50.16487        48.84201         0.44426
C         48.89474        48.09260         0.76317
C         50.10567        50.30374         0.80127
C         48.80208        50.98861         0.66730
C         49.91256        53.20221         0.78993
C         48.72111        52.35607         1.29536
C         49.78071        54.61714         1.30363
C         48.56010        55.14174         1.54741
C         52.20048        20.72740        -2.89231
C         51.00300        21.34510        -2.51681
C         52.27547        23.47071        -2.25307
C         51.04002        22.74080        -2.17421
C         52.28320        24.86675        -1.99492
C         51.09121        25.54139        -1.58807
C         52.32233        27.69526        -1.48263
C         51.07016        26.93670        -1.32845
C         52.28275        29.19150        -1.39424
C         50.90440        29.84398        -1.35219
C         52.31299        32.06194        -1.04516
C         51.00392        31.30293        -0.88364
C         52.50644        33.31535        -0.29247
C         51.44023        33.87673         0.39594
C         52.75099        36.03481         0.77103
C         51.52374        35.25867         0.92629
C         52.79386        37.39472         0.99738
C         51.69158        38.06872         1.68535
C         52.83489        40.26124         1.48967
C         51.64733        39.54932         1.74373
C         52.91612        41.66889         1.88578
C         51.54340        42.41665         2.15746
C         52.78573        44.68557         1.85803
C         51.50498        43.92370         2.04876
C         52.71516        46.08110         1.38721
C         51.44804        46.73580         1.14773
C         52.59492        48.89739         0.87829
C         51.43266        48.16269         0.89760
C         52.57547        50.37337         0.76832
C         51.26689        51.06083         0.91127
C         52.40612        53.15140         1.49480
C         51.22695        52.48171         1.09112
C         53.41437        21.42725        -2.92460
C         54.74891        23.52479        -2.63650
C         53.48661        22.78987        -2.61253
C         54.74227        24.92767        -2.49705
C         53.50192        25.62074        -2.18787
C         54.66379        27.77696        -2.43966
C         53.48890        26.99537        -2.03287
C         54.60162        29.28371        -2.45257
C         53.43556        30.01079        -1.87671
C         54.71110        32.16550        -1.88145
C         53.50625        31.33810        -1.57310
C         54.87368        33.53325        -1.27482
C         53.83526        33.97258        -0.29224
C         55.16088        36.17532        -0.13055
C         53.96610        35.36946         0.24045
C         55.18208        37.52718         0.15105
C         53.86370        38.24646         0.34652
C         55.18884        40.34709         0.77754
C         53.98930        39.63586         0.92822
C         55.22127        41.78343         1.01765
C         54.08597        42.44854         1.47637
C         55.23668        44.66343         1.08244
C         54.09490        43.91477         1.62465
C         55.18429        46.08746         1.07573
C         53.91619        46.76040         1.13475
C         55.19819        49.00283         1.04815
C         53.88290        48.19271         0.82607
C         55.10077        50.40351         1.47492
C         53.86218        51.16346         1.15206
C         53.62656        52.51836         1.65357
C         57.19913        23.57472        -2.70879
C         56.00511        22.87589        -2.76369
C         57.23132        24.98802        -2.57704
C         55.97648        25.65330        -2.51754
C         57.15524        27.79457        -2.27300
C         55.96768        27.07568        -2.42629
C         56.97485        29.18990        -1.94535
C         55.89511        29.96297        -2.25611
C         57.23587        32.22575        -2.50871
C         55.95261        31.44957        -2.34387
C         57.26740        33.69095        -2.13256
C         56.19378        34.23848        -1.28262
C         57.56537        36.25371        -0.80373
C         56.31055        35.52459        -0.74420
C         57.64083        37.59068        -0.23660
C         56.41745        38.27452         0.12774
C         57.67387        40.36180         0.65356
C         56.40810        39.64847         0.44416
C         57.69216        41.84288         0.65807
C         56.44590        42.53387         0.82541
C         57.68965        44.68713         0.67295
C         56.42273        43.94665         0.81694
C         57.69050        46.17387         0.94791
C         56.39334        46.84983         1.11584
C         57.56477        48.88633         1.88275
C         56.39675        48.22191         1.37898
C         57.41908        50.21539         2.27692
C         56.19756        50.93420         2.12609
C         59.71130        25.06868        -2.60995
C         58.47404        25.75216        -2.53134
C         59.72561        27.90711        -2.51251
C         58.46725        27.18308        -2.40787
C         59.85075        29.37163        -2.71067
C         58.82358        30.20691        -2.32443
C         59.90971        32.31705        -2.99993
C         58.57511        31.55492        -2.77800
C         59.90608        33.70043        -2.46201
C         58.64113        34.41707        -2.13955
C         60.00740        36.28788        -1.20146
C         58.72288        35.66033        -1.34061
C         60.07225        37.65710        -0.71175
C         58.87753        38.26206        -0.19972
C         60.19928        40.40927         0.09157
C         58.98625        39.62084         0.36013
C         60.21720        41.91049         0.25460
C         58.90330        42.52847         0.65982
C         60.11303        44.60422         1.26788
C         58.94296        43.94816         0.88064
C         60.09524        46.02625         1.61700
C         58.89742        46.79054         1.51773
C         59.98942        48.71099         2.52575
C         58.82405        48.12756         1.99584
C         60.90944        25.76283        -2.59809
C         60.91046        27.16146        -2.58087
C         61.03320        30.09030        -3.14594
C         61.11276        31.45890        -3.06674
C         61.09972        34.28543        -2.09965
C         61.15961        35.58592        -1.54927
C         61.24684        38.40506        -0.80330
C         61.28237        39.78257        -0.47161
C         61.33626        42.47705         1.10173
C         61.28926        43.76937         1.49959
C         61.24238        46.66868         2.13715
C         61.18318        47.98764         2.57733
O         36.56297        50.23051        -4.01345
O         52.40703        41.94942         3.22063
O         25.81046        32.81471        -1.13719
O         54.39075        28.55624        -3.69782
O         30.76395        31.81406         3.06859
O         44.40372        38.34980         3.01638
O         40.03692        20.24815         2.34698
O         33.30034        34.20862         2.57982
O         58.02010        29.80779        -1.25478
O         24.70377        34.85324        -1.88694
O         58.47939        39.77034         1.73514
O         48.22414        50.80850        -0.67557
O         45.40460        54.36694         2.91127
O         38.43300        43.66262        -3.83567
O         36.79658        54.74782        -4.07097
O         43.36958        33.32622         3.61081
O         35.34436        32.85105         3.21031
O         35.12450        23.73998         0.39781
O         34.99953        47.82639        -3.87258
O         39.45041        48.14436        -3.47021
O         26.67001        48.43878         0.36531
O         29.00825        43.46499         0.45051
O         54.37467        34.19031         1.05016
O         54.70760        48.64941        -0.28086
O         40.83426        29.38860        -0.02332
O         28.74154        47.73123        -2.74490
O         22.87870        33.01290         2.25727
O         42.83757        23.52370         2.05485
O         38.28040        35.93803         2.51820
O         53.71696        44.44565         2.95162
O         25.04022        39.47034        -3.44628
O         59.02249        31.94260        -4.09636
O         50.70392        44.52099         3.11990
O         56.36653        31.94002        -3.65817
O         33.82291        39.11834        -2.75327
O         28.29685        40.74466        -3.16476
O         31.22219        41.19648        -3.26046
O         39.24791        24.76861        -0.22555
O         34.32711        43.86281         0.06660
O         40.72691        43.72143         0.79399
O         54.36016        33.36359        -2.63948
O         22.98801        40.90017        -3.29160
O         31.95902        42.42197         0.15815
O         30.10747        34.74669        -1.71328
O         36.61847        39.02549        -2.51261
O         51.20443        32.19160        -2.02747
O         39.31332        39.16888        -1.84985
O         40.50531        37.06479         2.41848
O         29.30845        34.08841         1.75951
O         27.09540        38.14997        -3.06681
O         27.40886        25.40656        -0.23338
O         22.70871        28.16464         3.09577
O         36.36355        45.66473        -3.51955
O         31.58767        48.49873        -0.39652
O         51.30175        37.45109         2.95203
O         41.46554        25.93367        -0.51369
O         33.32724        22.74460         3.31795
O         29.66292        26.88705         3.38285
O         32.70707        28.05918         3.51949
O         34.75371        51.45936        -1.29848
O         38.87915        18.11586         2.44668
O         46.72956        39.73431         0.31131
O         41.87011        53.19208         2.32065
O         53.42440        50.97068        -0.23906
O         46.10243        35.51974         3.55127
O         29.06390        46.30399         0.44430
O         42.39317        56.82020         2.71853
O         42.18745        16.99033        -3.25138
O         46.27645        32.87358         3.59547
O         44.20974        39.16292        -0.66405
O         43.17413        42.04292        -1.28058
O         26.84366        42.29650        -0.02870
O         38.26469        52.44104        -3.69002
O         40.46782        51.05368         1.13298
O         27.95423        28.31492         0.60370
O         47.49508        24.56143         1.17992
O         25.26896        28.15911         3.07784
O         47.44966        23.36243        -2.37729
O         42.21620        48.85364         1.55209
O         52.65540        28.45170        -0.19541
O         42.05743        48.29152        -2.05610
O         44.21844        41.76425         2.33985
O         37.32273        32.99005         0.24700
O         42.53767        35.12259         0.22457
O         30.02603        49.94722        -3.47858
O         39.84843        54.90247        -2.58083
O         33.24304        35.72725        -1.69081
O         57.80897        45.64798        -0.43293
O         37.40360        31.41046         3.50678
O         57.67764        34.54359        -3.23916
O         36.25791        21.10696         3.87108
H         37.04573        21.57024         4.22647
O         36.78272        26.54388         3.67039
H         36.59050        27.41909         4.07230
O         42.33109        16.91664         0.27965
H         41.75382        16.29767         0.77763
O         41.10693        22.39479        -0.94698
H         40.67583        23.26642        -1.09467
O         53.35229        38.46864        -1.02506
H         54.04920        38.93710        -1.53250
O         28.41345        32.21088        -1.27293
H         27.59046        31.94922        -1.74479
O         37.97084        41.65370         0.43553
H         38.82629        41.64010         0.93693
O         29.55904        42.97354        -3.07806
H         30.07412        42.37634        -3.70418
O         40.33781        40.69300         1.31175
H         40.26474        39.99295         1.99687
O         48.91511        52.11709         2.71448
H         48.67570        52.93357         3.20201
O         50.41054        29.85111        -2.71427
H         50.61395        30.74104        -3.09093
O         46.59670        47.42512        -1.00819
H         46.69506        48.20790        -1.59008
O         47.73634        40.25881         3.79071
H         48.55503        40.63458         4.17671
O         43.48297        19.35788         1.19890
H         43.27024        18.39530         1.14022
O         24.70384        34.77369         1.70947
H         24.30702        34.30156         2.48040
O         31.55935        27.06045         0.24578
H         30.78190        26.62804        -0.16862
O         28.83484        30.05943         3.73134
H         29.55225        30.69179         3.98304
O         46.17032        46.96611         2.59181
H         46.15697        46.12282         3.10650
O         60.46806        42.41064        -1.10998
H         60.42977        43.39128        -1.07474
O         41.27702        40.66888        -2.21612
H         41.80920        41.34440        -2.69326
O         48.57025        35.19660        -0.18261
H         48.51504        36.12710        -0.48427
O         49.80816        53.26417        -0.65659
H         50.66469        53.57200        -1.01882
O         24.34188        27.51764         0.02689
H         25.12746        27.09880        -0.38925
O         47.00180        21.87439         0.95087
H         47.15557        22.67692         1.50748
O         50.23424        48.82687        -1.02864
H         49.55399        49.47032        -1.34604
O         49.16201        42.06322        -0.03473
H         48.62479        41.26407        -0.23700
O         49.80684        33.71722         2.90972
H         49.93409        32.79376         3.21202
O         46.19585        44.11016         3.10144
H         45.44116        43.53601         3.36597
O         46.98914        30.35205         3.10745
H         46.82405        31.14610         3.67777
O         41.78580        43.74256        -2.56386
H         39.27521        44.01292        -4.19475
H         22.68979        23.74332         0.50509
H         20.61545        25.06048         0.72096
H         20.58243        27.34382         1.56517
H         20.60338        29.36450         1.70520
H         20.67479        31.67491         0.99802
H         20.76300        33.75674         0.73564
H         20.85550        35.93436        -0.27103
H         20.93393        37.56379        -1.10629
H         20.91578        39.82368        -1.92627
H         21.02227        41.78382        -1.61965
H         21.13827        44.09859        -0.92419
H         21.14527        45.93498        -0.86429
H         23.31221        49.62728        -0.59901
H         21.16369        48.37636        -0.62210
H         24.47619        22.72500         0.35870
H         24.91480        50.55552        -1.47889
H         26.57813        21.53170         0.36026
H         27.01572        51.70572        -1.88010
H         30.27550        19.26022         0.96213
H         28.21017        20.50520         0.65054
H         30.84743        53.76344        -2.58117
H         28.74233        52.69815        -2.09947
H         31.90623        18.24766         1.22163
H         32.28097        54.36750        -3.86472
H         34.01259        17.04625         1.41334
H         34.36916        55.50150        -4.54347
H         37.50037        15.08417         0.57099
H         35.73266        16.04302         1.81091
H         37.85764        58.17891        -1.30904
H         36.77538        57.20845        -3.31882
H         37.51290        15.53188        -1.45825
H         37.85367        58.34201         0.67099
H         40.43797        15.96986        -4.58820
H         38.16822        15.19257        -3.83536
H         40.92078        58.49022         3.68628
H         38.70515        59.29829         2.80921
H         44.31053        16.04301        -4.06417
H         44.54021        58.07212         2.32962
H         46.59410        16.91540        -3.68672
H         46.73168        57.14436         1.62727
H         50.50461        18.71461        -3.26112
H         48.35731        17.58133        -3.28561
H         50.66635        55.26801         1.35703
H         48.48542        56.19546         1.85321
H         52.21164        19.66185        -3.15815
H         52.34002        54.21117         1.78321
H         54.32036        20.88046        -3.21892
H         54.44961        53.05939         2.14152
H         58.13264        23.00084        -2.77619
H         56.04518        21.78300        -2.86873
H         58.26745        50.75537         2.71891
H         56.17296        51.97486         2.48034
H         59.73714        23.97403        -2.67904
H         59.97610        49.74700         2.88999
H         61.86221        25.21779        -2.64229
H         61.87496        27.68396        -2.63267
H         61.95184        29.52729        -3.36555
H         62.09165        31.93849        -3.20963
H         62.04546        33.76446        -2.30203
H         62.15038        36.02726        -1.38325
H         62.15586        37.95489        -1.22284
H         62.19224        40.35903        -0.68898
H         62.23326        41.86771         1.28534
H         62.14550        44.19275         2.04330
H         62.19683        46.13072         2.20584
H         62.08742        48.46525         2.97930
