         671
 CSIRO Nanostructure Databank - Neutral Graphene Oxide Data Set
C          5.96885        31.96341        -0.25547
C          5.94637        33.30400        -0.02857
C          8.37224        27.65792        -0.13855
C          8.38948        29.03053        -0.01024
C          7.20661        29.81603        -0.27539
C          8.37352        31.88448         0.34333
C          7.17529        31.18255        -0.07409
C          8.35233        33.26615         0.57373
C          7.13304        34.03510         0.38477
C          8.34403        36.20612         0.84385
C          7.09378        35.39634         0.58634
C          8.13588        37.48934         1.58101
C         10.88093        23.21076        -0.09060
C         10.93886        24.69694        -0.36591
C          9.62680        25.42889        -0.23532
C         10.82608        27.58784         0.24980
C          9.51605        26.80838         0.36092
C         10.83076        29.03105         0.58426
C          9.59664        29.75191         0.40081
C         10.87742        31.89548         0.67667
C          9.58072        31.13454         0.53695
C         10.69493        33.23433         1.34060
C          9.51163        33.90683         1.16755
C         10.62755        36.06182         2.02270
C          9.38299        35.32457         1.58485
C         10.63051        37.52748         1.71818
C          9.33670        38.32441         1.94752
C         10.62705        40.36422         1.20941
C          9.46859        39.67371         1.23291
C         10.71823        41.74185         0.57311
C         13.27751        18.93064         0.03189
C         13.25575        20.33457         0.24301
C         12.06166        21.06682         0.17122
C         13.30629        23.18961         0.44788
C         12.03543        22.50022         0.19934
C         13.31431        24.63140         0.59076
C         11.98685        25.33510         0.56468
C         13.32313        27.51530         0.80941
C         12.10498        26.82968         0.33439
C         13.27266        28.94637         1.07741
C         12.00595        29.66278         0.98416
C         13.15814        31.72363         1.69421
C         12.02731        31.08593         1.22444
C         13.17265        33.15163         1.90018
C         11.83781        33.83560         2.12673
C         13.13436        36.04499         2.14708
C         11.87797        35.33406         2.01531
C         13.19044        37.55691         2.03259
C         11.91754        38.26620         1.67681
C         13.15908        40.37210         1.21386
C         11.89095        39.77644         1.81555
C         13.18175        41.85360         1.09996
C         12.00302        42.49582         0.87074
C         13.28168        44.68825         0.81846
C         11.95306        43.98447         0.63989
C         13.29786        46.05710         0.66821
C         15.81226        14.79077        -0.84597
C         15.77754        16.10208        -0.33199
C         14.53858        16.81991        -0.24253
C         15.70119        18.86188         0.55250
C         14.46903        18.17406         0.09832
C         15.71217        20.33487         0.51276
C         14.52552        21.04310         0.42979
C         15.78298        23.26304         0.72909
C         14.49155        22.48573         0.54609
C         15.62534        24.57394         1.53025
C         14.42515        25.33147         1.01272
C         15.66264        27.46356         1.68366
C         14.43130        26.76454         1.13472
C         15.72555        28.87656         1.12038
C         14.43645        29.60415         1.39418
C         15.69040        31.77314         1.74816
C         14.42945        30.96866         2.01119
C         15.66434        33.14420         1.86851
C         14.37356        33.82649         1.98188
C         15.67068        36.03524         1.68034
C         14.38090        35.29565         1.82370
C         15.66866        37.51822         1.76649
C         14.47251        38.21304         1.72589
C         15.72530        40.38279         1.35653
C         14.45421        39.62855         1.30537
C         15.70326        41.78524         1.28648
C         14.46486        42.54572         1.16550
C         15.74664        44.66960         1.45675
C         14.48369        43.93356         1.07034
C         15.78050        46.13152         1.00711
C         14.50900        46.84312         0.67516
C         15.80681        48.94612         0.21758
C         14.51959        48.15679         0.29444
C         15.77450        50.22171        -0.58831
C         18.25178        11.02827        -2.85218
C         18.25244        12.20620        -2.06897
C         17.04596        12.84731        -1.71089
C         18.27347        14.73994        -0.70099
C         17.03410        14.11305        -1.07049
C         18.23773        16.04101        -0.13750
C         17.01918        16.72627         0.01463
C         18.29066        18.87085         0.54353
C         17.01349        18.10506         0.54322
C         18.27303        20.25986         0.79000
C         17.02918        21.07272         0.48425
C         18.18229        23.11814         1.51695
C         16.87821        22.35170         1.33234
C         18.18443        24.61369         1.49279
C         16.91543        25.36436         1.38460
C         18.20291        27.47603         1.36034
C         16.95148        26.72705         1.40289
C         18.19494        28.91646         1.46849
C         16.98025        29.60937         1.49760
C         18.22820        31.75215         1.80257
C         16.96696        31.09538         1.31279
C         18.14981        33.15438         2.35503
C         16.90636        33.90719         1.93644
C         18.15529        36.04707         2.00622
C         16.93324        35.28770         1.88322
C         18.13349        37.44878         1.87118
C         16.92668        38.19712         1.70476
C         18.18753        40.27897         1.33371
C         16.94757        39.62614         1.51485
C         18.17285        41.69840         0.93312
C         16.95434        42.50910         1.16793
C         18.23565        44.57856         0.73599
C         17.00396        43.88989         1.09720
C         18.23733        45.88187         0.31350
C         17.03551        46.73484         0.46691
C         18.21936        48.76097        -0.47116
C         16.91098        48.01948        -0.35021
C         18.24199        50.12425        -0.71043
C         16.96900        50.84714        -0.87683
C         18.23372        52.86284        -1.56176
C         17.02752        52.17803        -1.39975
C         18.26366        54.18325        -2.07267
C         20.78001         7.75084        -5.64916
C         20.61620         8.96162        -4.89822
C         19.43716         9.34692        -4.23389
C         20.70236        11.07187        -2.97225
C         19.44625        10.47833        -3.36766
C         20.70383        12.16660        -2.06263
C         19.50920        12.78427        -1.65624
C         20.74215        14.65805        -0.62602
C         19.52602        14.04814        -0.94053
C         20.79107        16.01885        -0.04957
C         19.50056        16.71699         0.24924
C         20.74323        18.90342         0.44549
C         19.51399        18.19370         0.40199
C         20.72954        20.29649         0.73025
C         19.49202        20.94659         0.96533
C         20.74358        23.15316         1.14113
C         19.48739        22.37437         1.35658
C         20.66958        24.59598         0.74042
C         19.40400        25.34076         0.99982
C         20.65371        27.52652         1.07800
C         19.42566        26.81894         1.14364
C         20.67251        28.92979         1.35629
C         19.44997        29.62769         1.51694
C         20.68546        31.76673         1.99120
C         19.42464        31.05844         1.78123
C         20.68079        33.18374         2.17956
C         19.43436        33.93232         2.20443
C         20.65984        36.07140         2.22429
C         19.41266        35.32740         2.18378
C         20.67224        37.44180         2.01946
C         19.39248        38.23497         2.13078
C         20.64767        40.17422         1.13509
C         19.41891        39.58531         1.45415
C         20.79126        41.66762         0.99368
C         19.47931        42.39090         0.78052
C         20.77814        44.43523         0.26237
C         19.56137        43.88182         0.98575
C         20.75098        45.84060        -0.12626
C         19.44197        46.48720        -0.29492
C         20.72531        48.65814        -0.74928
C         19.43504        47.96550        -0.66691
C         20.72848        50.08883        -0.82232
C         19.49197        50.80158        -0.90749
C         20.69749        52.89870        -1.31739
C         19.50675        52.20528        -1.24347
C         20.69471        54.40073        -1.48624
C         19.46600        54.90677        -2.20445
C         20.75008        56.70778        -3.30872
C         19.51345        56.09185        -2.93176
C         20.77633        57.66393        -4.29985
C         23.12485         4.91883        -6.41297
C         21.96564         5.74226        -6.38130
C         23.29853         7.49755        -5.33253
C         21.99714         7.04217        -5.82608
C         23.59540         8.82132        -5.16560
C         21.74620         9.82241        -4.71444
C         23.25676        11.22291        -3.25884
C         21.91065        10.66551        -3.61754
C         23.28769        12.03971        -1.99154
C         21.98386        12.60664        -1.48332
C         23.32205        14.59345        -0.44807
C         22.00566        13.90732        -0.71264
C         23.30390        16.09344        -0.18863
C         22.00252        16.85149        -0.42550
C         23.20060        18.94091         0.22099
C         22.00665        18.24780         0.16169
C         23.23527        20.34327         0.57981
C         21.97782        21.04971         0.74468
C         23.21498        23.19076         1.27925
C         21.98941        22.42704         0.85753
C         23.21451        24.65100         0.90576
C         21.97448        25.32092         0.37314
C         23.21297        27.55795         1.07306
C         21.91914        26.84284         0.70173
C         23.12352        28.91692         1.62707
C         21.93505        29.62117         1.59703
C         23.13466        31.76712         2.02039
C         21.91204        31.06076         1.90231
C         23.12810        33.15889         2.24765
C         21.91392        33.86802         2.30827
C         23.19913        36.07783         2.50319
C         21.88554        35.32190         2.73012
C         23.18705        37.53694         2.09172
C         21.89523        38.16936         1.79314
C         23.12142        40.04050         0.67833
C         21.87686        39.45836         1.26128
C         23.07799        41.35849        -0.05603
C         21.75492        42.14537        -0.11312
C         23.05674        44.27226        -0.72656
C         21.87164        43.65829        -0.01606
C         23.20209        45.75983        -0.38169
C         21.89826        46.50477        -0.50790
C         23.18455        48.61651        -0.86324
C         21.91779        47.92526        -0.75256
C         23.18859        50.05783        -0.89678
C         21.97033        50.77163        -0.87215
C         23.23066        52.89721        -1.34354
C         21.96813        52.27535        -0.78960
C         23.19178        54.27895        -1.76259
C         22.00091        54.96254        -2.00230
C         23.20090        56.86220        -3.02955
C         22.01451        56.20256        -2.73822
C         23.23653        58.03346        -3.98563
C         22.08154        57.94738        -4.98334
C         23.33832        59.47642        -6.43875
C         22.11926        59.11007        -5.93678
C         24.28610         5.25873        -5.77471
C         25.77549         7.13145        -4.93483
C         24.36813         6.49976        -4.92360
C         25.81667         8.50290        -4.27651
C         24.70997         9.32206        -4.39862
C         25.84744        11.03507        -2.95128
C         24.61724        10.62044        -3.68562
C         25.84925        12.20521        -2.19702
C         24.59077        12.69498        -1.59632
C         25.77231        14.75787        -0.87997
C         24.59165        14.01744        -0.93337
C         25.76100        16.17498        -0.54892
C         24.54873        16.83744        -0.38756
C         25.74878        19.04377        -0.13341
C         24.45723        18.29965        -0.26464
C         25.72293        20.27017         0.74450
C         24.43776        21.04944         0.70233
C         25.69163        23.13334         1.13134
C         24.48627        22.45420         0.95800
C         25.72400        24.58951         1.16729
C         24.51779        25.36379         0.66469
C         25.65711        27.44546         1.49834
C         24.48752        26.79951         1.18837
C         25.68348        28.85231         1.85463
C         24.37375        29.56796         2.17084
C         25.70820        31.69217         2.13650
C         24.42218        31.02507         1.70330
C         25.71270        33.13960         2.40493
C         24.41124        33.88251         2.47878
C         25.65558        36.03299         2.07489
C         24.44539        35.34103         2.28247
C         25.65537        37.43501         1.79598
C         24.44019        38.15547         1.60120
C         25.67655        39.88643         0.28397
C         24.41976        39.42190         1.01326
C         25.67159        41.35962        -0.17150
C         24.36269        42.09627        -0.37550
C         25.59221        44.26047        -0.57607
C         24.37572        43.56801        -0.45831
C         25.62862        45.67847        -0.83450
C         24.34416        46.40629        -1.17765
C         25.63189        48.57913        -1.03520
C         24.38927        47.90111        -0.93585
C         25.65714        50.01673        -1.09127
C         24.43677        50.75249        -1.03554
C         25.69715        52.81105        -1.68226
C         24.41497        52.17256        -1.29977
C         25.73039        54.27107        -1.96059
C         24.45750        55.03017        -1.85830
C         25.77062        57.16102        -2.76771
C         24.45668        56.45411        -2.40565
C         25.73510        57.76911        -4.13788
C         24.55132        58.14422        -4.74869
C         24.53796        58.88238        -5.95252
C         27.01303         9.00646        -3.67636
C         28.34031        10.74300        -2.46469
C         27.05002        10.25956        -3.09363
C         28.31358        12.18571        -2.01980
C         27.08008        12.83307        -1.78068
C         28.27199        14.82706        -0.99516
C         27.04820        14.14342        -1.22778
C         28.26548        16.22795        -0.60261
C         27.02198        16.90196        -0.46895
C         28.22935        19.00097        -0.06634
C         27.02171        18.28838        -0.18617
C         28.18113        20.46899         0.10485
C         26.95457        21.10941         0.61659
C         28.21776        23.01173         1.57648
C         26.94582        22.41397         1.02294
C         28.12753        24.52593         1.75228
C         26.89549        25.25804         1.37486
C         28.17908        27.40774         1.75249
C         26.96801        26.76241         1.14794
C         28.13442        28.76565         2.39167
C         26.87218        29.52849         2.03717
C         28.17047        31.69948         2.10115
C         26.89500        30.98644         2.14136
C         28.16005        33.13426         1.99954
C         26.95245        33.88897         2.12604
C         28.13664        36.00028         1.73197
C         26.91507        35.28898         2.00907
C         28.16668        37.40521         1.58188
C         26.93428        38.22609         1.84188
C         28.10307        40.20178         0.88229
C         26.93228        39.49996         1.02607
C         28.10914        41.57071         0.36054
C         26.89184        42.18797        -0.03067
C         28.08163        44.29762        -0.42557
C         26.85510        43.56561        -0.34914
C         28.08129        45.69604        -0.73350
C         26.83762        46.38937        -0.89088
C         28.08348        48.50839        -1.23600
C         26.84653        47.82912        -1.07277
C         28.09657        49.93984        -1.39172
C         26.91755        50.67095        -1.27530
C         28.20038        52.80628        -1.82170
C         26.97571        52.17775        -1.18223
C         28.20846        54.14534        -2.14447
C         27.02960        55.05029        -1.89137
C         26.96298        56.25704        -2.78933
C         29.50660        12.84538        -1.70825
C         30.81463        14.78410        -0.81892
C         29.49889        14.15731        -1.21589
C         30.76510        16.28257        -0.63532
C         29.48761        16.94630        -0.47471
C         30.71627        19.10246        -0.15876
C         29.47291        18.34700        -0.22656
C         30.71809        20.46998         0.04568
C         29.46573        21.24495         0.14767
C         30.66868        23.18278         1.08475
C         29.48511        22.55446         0.85612
C         30.69721        24.47722         1.81244
C         29.41489        25.25888         1.85909
C         30.64715        27.36705         2.34788
C         29.49723        26.73921         1.51939
C         30.61928        28.85420         2.10356
C         29.42658        29.53049         2.13046
C         30.63038        31.67251         1.80828
C         29.38782        30.98047         1.97967
C         30.63706        33.12342         1.74360
C         29.37598        33.84876         1.76559
C         30.56733        35.97115         1.25934
C         29.33921        35.24184         1.58506
C         30.60660        37.43369         1.31410
C         29.38497        38.12524         1.36561
C         30.59476        40.22443         0.97519
C         29.38304        39.55270         1.16433
C         30.60420        41.72981         0.83383
C         29.31002        42.30066         0.29561
C         30.57637        44.33441        -0.38301
C         29.31769        43.63428        -0.16948
C         30.55371        45.70507        -0.77499
C         29.31353        46.39684        -0.89614
C         30.55582        48.47551        -1.44460
C         29.30915        47.79024        -1.20298
C         30.54393        49.86642        -1.72441
C         29.35659        50.61775        -1.67996
C         29.36426        51.99914        -1.95971
C         31.94247        16.98607        -0.56161
C         33.19526        19.08727        -0.22678
C         31.98627        18.40533        -0.32263
C         33.26128        20.49956         0.01705
C         31.97567        21.23035         0.03678
C         33.22687        23.28107         0.95369
C         31.94865        22.65644         0.54626
C         33.23561        24.55467         1.48626
C         31.98754        25.22321         1.92322
C         33.17273        27.37642         1.96159
C         31.97186        26.69338         2.02690
C         33.16911        28.82161         1.88730
C         31.85428        29.48791         1.52611
C         33.09901        31.65138         1.64337
C         31.85744        30.97954         1.69917
C         33.15906        33.13925         1.46028
C         31.83573        33.80525         1.69352
C         33.08362        36.01800         1.72409
C         31.86657        35.23266         1.38599
C         33.09861        37.43536         1.32440
C         31.85325        38.11316         1.18169
C         33.10232        40.19746         0.85223
C         31.84205        39.52808         1.00047
C         33.06306        41.64480         0.58451
C         31.79258        42.17213        -0.04095
C         33.03959        44.30780        -0.61098
C         31.80376        43.66092        -0.27370
C         33.00224        45.66354        -1.01708
C         31.78856        46.37854        -1.06970
C         31.76174        47.75500        -1.41197
C         34.43708        21.19912         0.21143
C         35.67449        23.20888         0.91073
C         34.47645        22.58303         0.64922
C         35.75695        24.49510         1.69562
C         34.46689        25.28051         1.67951
C         35.71536        27.37489         2.05283
C         34.43725        26.63839         1.91163
C         35.67243        28.88199         1.99353
C         34.35049        29.54478         1.84378
C         35.57132        31.72254         1.61446
C         34.32236        30.96988         1.67620
C         35.60444        33.08487         1.78403
C         34.33721        33.77304         2.22968
C         35.62235        36.01584         1.74490
C         34.36099        35.30025         2.05633
C         35.56562        37.42008         1.51439
C         34.33411        38.12202         1.32023
C         35.58314        40.19733         0.68027
C         34.32168        39.53295         1.01235
C         35.56951        41.49307         0.09612
C         34.41834        42.35500         0.13668
C         34.26243        43.58406        -0.60843
C         36.96010        25.35353         1.39310
C         38.26084        27.46654         1.69497
C         36.96489        26.67641         1.64899
C         38.12620        28.92183         1.28578
C         36.86839        29.62095         1.51779
C         37.98211        31.76075         1.00383
C         36.80591        30.99283         1.36511
C         38.03871        33.11088         1.24158
C         36.90643        33.81947         1.95420
C         38.03326        35.99460         1.23346
C         36.82339        35.29805         1.61086
C         38.04042        37.37217         1.14771
C         36.85695        38.19790         1.56208
C         36.77825        39.50050         0.82709
C         39.19155        29.58778         0.76550
C         40.39967        31.77258         0.35915
C         39.09512        31.02358         0.29838
C         40.44220        33.09745         0.59837
C         39.24145        33.85965         0.92531
C         39.23621        35.23239         0.95232
O         18.78054        41.96726        -0.41030
O         28.66816        21.21041        -1.09034
O         25.72535        53.30778        -3.06291
O         20.34266        22.74863         2.50894
O         22.95676        40.13264        -0.84133
O         18.21547        23.88884         2.76887
O         24.42963        56.18709        -0.96439
O         14.90492        35.62277         0.47823
O         28.64480        24.97450         3.07060
O         31.31299        35.49908         0.05229
O         11.29865        37.79403         0.44523
O         25.03060        19.08698        -1.39517
O         25.08743        41.48962        -1.51165
O         19.70469        24.81909        -0.35381
O         35.85246        28.17734         3.27534
O         24.00815        11.77694        -4.37663
O         11.60607        27.30680        -0.97122
O          9.58636        35.59151         2.98753
O         13.67719        39.74007         0.00888
O         20.30280        16.07699         1.31864
O         31.91712        22.37707        -0.89574
O         21.92013        12.61368        -0.02476
O         19.21337        46.90779        -1.69927
O         24.02854        11.50681        -0.86149
O         23.35234        15.14873         0.91165
O         16.26358        18.28839         1.79883
O         33.74889        42.45971         1.47950
O         23.33110        37.14786         3.51680
O         22.72756         9.78578        -5.70051
O         33.54635        35.89667         3.12894
O         13.19249        36.92263         3.35719
O         31.38156        24.49736         3.11218
O         25.09929        33.46240         3.72694
O         22.67776        27.56081        -0.31735
O         16.68157        46.89105         1.90274
O         35.95594        24.04943         3.08834
H         35.13314        23.59743         3.37267
O         21.67873        35.27413         4.17648
H         22.10995        36.08248         4.54270
O         16.97564        31.27541        -0.18406
H         17.87470        31.03163        -0.49659
O         23.09720        59.24284        -3.20382
H         23.86224        59.28517        -2.58829
O         28.02142        28.55146         3.84548
H         28.81305        28.01295         4.11071
O         24.75327        25.48228        -0.79111
H         23.88139        25.73163        -1.19548
O         28.31556        22.42096         2.90437
H         28.62979        23.13865         3.50823
O         27.05098        38.68681         3.25049
H         26.85618        37.91747         3.82815
O         24.49174        30.96914         0.24447
H         24.52026        31.88470        -0.10287
O         21.97737        52.60997         0.65006
H         21.75771        53.57315         0.70928
O         10.96060        44.57947         1.49930
H         11.34490        44.66802         2.39555
O         15.81451        28.72497        -0.33328
H         15.96388        29.62920        -0.70161
O         21.20843        41.91248        -1.42699
H         21.41867        40.97678        -1.66160
O         11.53025        33.58401         3.55161
H         10.73296        34.12829         3.76542
O         11.46926        25.14394         1.92893
H         12.21626        25.24096         2.55851
O         23.57730        45.79619         1.02244
H         23.71805        46.73356         1.27381
O         24.14051        46.29414        -2.60744
H         23.77921        45.39591        -2.80412
O         37.08739        38.54088         2.99649
H         37.12875        37.69385         3.49089
O         37.19635        33.76918         3.39980
H         36.33164        33.68084         3.86556
O         11.88260        40.06609         3.24073
H         11.93593        41.03815         3.35956
O         16.19733        23.76540        -0.55825
H         16.38192        23.00313        -1.15506
O          8.96904        36.46261        -0.45190
H          8.46102        37.16810        -0.90313
O         10.63667        41.60049        -0.85943
H         11.34426        40.98346        -1.14338
O         19.32612        38.58367         3.57216
H         19.34201        37.74055         4.07542
O         14.43027        30.73915         3.46877
H         14.27304        31.60560         3.90233
O         25.80582        19.71028         2.10541
H         25.85807        20.45985         2.73776
O         16.42143        21.92869         2.63427
H         17.14600        21.44231         3.08114
O         29.86631        26.87866         0.11290
H         29.01875        26.90267        -0.40380
O         33.47977        33.40279         0.05635
H         32.69932        33.15805        -0.48529
O         21.89518        17.00960        -1.87669
H         22.57601        17.65471        -2.16746
O         27.02426        52.48927         0.24291
H         27.85929        52.12421         0.60301
O         31.70824        29.24765         0.06406
H         31.18667        28.41447        -0.05355
O         34.23037        33.50170         3.64558
H         33.73488        34.25728         4.04419
O         11.29191        32.20320        -0.70958
H         10.56662        32.71578        -1.12720
O         16.50802        47.62725        -1.68611
H         17.30553        47.23550        -2.11885
O         30.82091        42.30316         2.14756
H         30.09120        42.01277         2.73344
O         24.12865         6.09209        -3.54288
H         23.26160         5.63605        -3.51099
O         15.36848        24.37670         2.93861
H         15.99162        23.67698         3.25826
O         38.73635        30.95507        -1.12979
H         37.83614        30.56983        -1.18332
O         20.59924        54.93127        -0.10280
H         19.68854        54.74885         0.21504
O         15.52861        27.52122         3.12179
H         15.49759        26.59408         3.45034
O         29.44714        10.49622        -3.34194
H         29.33328        11.04878        -4.14190
O         21.43317        42.10063         2.21813
H         20.79789        42.00957         2.95956
O         25.71918        39.07716        -0.93057
H         25.09700        39.51378        -1.56198
O          9.24094        38.63467         3.35651
H         10.03145        39.16879         3.60416
O         23.17044        23.14107         2.77729
H         22.23096        23.03882         3.05708
O         31.85399        14.41757        -1.73447
H         31.65938        14.82966        -2.60082
O         15.70541        44.69755         2.92026
H         16.32532        45.40985         3.19920
O         17.26911        21.45257        -0.91748
H         17.28985        20.63137        -1.45274
O         31.67602        41.51704        -1.32853
H         30.85452        41.83339        -1.76068
O         22.36712        56.75104        -5.79004
H         21.64824        56.65386        -6.44898
O         24.25322        29.53281         3.61464
H         25.10206        29.83450         4.00407
O         39.28363        26.81841         0.94135
H         39.04382        26.85628        -0.00678
O         25.93306        58.23413        -1.77064
H         25.73142        57.81692        -0.90085
O         30.38334        27.12489         3.75482
H         30.52981        26.16184         3.92387
O         27.12087        26.90320        -0.32430
H         26.32110        26.46799        -0.73367
O         16.16397        49.40403         1.54876
H         16.26114        48.60272         2.11942
O         17.98415        32.97140         3.81713
H         18.82193        32.59452         4.16332
O         27.14814        55.58166        -0.52868
H         27.94442        56.15254        -0.49978
O          9.23081        26.61117         1.79291
H          9.92129        25.98670         2.13801
O         22.76831        44.10225        -2.14573
H         22.23202        43.27362        -2.24653
O         26.19862         7.24757        -6.29762
H         27.04433         7.73947        -6.32055
O         19.78557        44.09194         2.41585
H         20.02822        45.03176         2.55225
O         11.35846        24.81366        -1.76031
H         11.48738        25.77825        -1.94123
O         22.07747        25.22823        -1.08349
H         21.17818        25.42013        -1.44115
H          5.05450        31.44164        -0.57493
H          5.01435        33.87161        -0.16818
H          7.44305        27.15546        -0.44960
H          6.29264        29.29268        -0.59519
H          6.14550        35.93355         0.42887
H          7.30644        37.51953         2.30665
H          9.94264        22.66792        -0.28369
H          8.70855        24.93445        -0.59116
H          8.55844        40.13054         0.81332
H          9.84308        42.36622         0.88400
H         12.33830        18.41977        -0.22954
H         11.11804        20.52794        -0.00482
H         11.58938        44.14950        -0.41171
H         12.35147        46.57577         0.45341
H         14.86993        14.29780        -1.12745
H         13.61722        16.29844        -0.54277
H         13.56679        48.65066         0.04615
H         14.82177        50.75120        -0.74373
H         17.28927        10.58101        -3.14061
H         16.08908        12.39099        -2.00525
H         16.08384        52.69867        -1.62324
H         17.33122        54.62409        -2.45814
H         19.85995         7.20355        -5.91214
H         18.50296         8.78818        -4.38681
H         18.58656        56.46765        -3.39368
H         19.83350        58.01156        -4.75192
H         23.06526         3.96127        -6.95198
H         21.02640         5.35957        -6.80588
H         23.40702        60.22933        -7.23811
H         21.18769        59.55433        -6.31844
H         25.14590         4.57320        -5.78582
H         26.47614         6.44193        -4.38206
H         26.69124        57.94612        -4.65415
H         25.48965        59.09188        -6.46374
H         27.92541         8.39249        -3.69443
H         28.52914        10.11526        -1.54725
H         29.13550        54.59553        -2.53572
H         27.91963        56.73901        -3.05581
H         30.46757        12.33465        -1.86459
H         31.10578        14.33124         0.17297
H         31.49411        50.37454        -1.94637
H         30.30196        52.46972        -2.29272
H         32.89278        16.44632        -0.69071
H         34.13682        18.52648        -0.32731
H         33.94233        46.17857        -1.26248
H         32.70786        48.27395        -1.62535
H         35.39674        20.66524         0.13777
H         36.61456        22.65976         0.74584
H         36.45376        41.83045        -0.46482
H         35.13048        43.99291        -1.14564
H         37.90430        24.85055         1.13116
H         38.59756        27.45331         2.76859
H         38.97693        37.89474         0.89904
H         37.72067        39.98419         0.52763
H         40.12532        29.03701         0.57124
H         41.31967        31.22124         0.11270
H         41.39938        33.64013         0.56436
H         40.15425        35.78910         0.71124
