         234
 CSIRO Nanostructure Databank - Neutral Graphene Oxide Data Set
C          1.45804         2.42395         1.85292
C          1.37157         3.74383         1.23318
C          2.60765         1.71791         1.87112
C          2.37521         4.20172         0.45187
C          1.10370         6.28464        -0.27735
C          1.09829         7.63444        -0.25683
C          2.37900         5.49015        -0.35305
C          2.32509         8.40846        -0.16885
C          1.10351        10.68811         0.07575
C          1.12642        12.04992         0.07202
C          2.25910         9.89524        -0.36381
C          2.33216        12.81541        -0.17431
C          1.16660        15.05634        -0.18864
C          1.21727        16.45884        -0.19921
C          2.33337        14.28360        -0.10517
C          2.41064        17.16519         0.02941
C          2.46461        18.57981        -0.31077
C          3.87533         2.36143         1.36591
C          3.57492         3.31134         0.19550
C          5.01133         1.42310         1.01073
C          4.83973         4.14413        -0.05629
C          3.62167         6.31055        -0.00568
C          3.53632         7.76587        -0.01743
C          4.80322         5.62289         0.16452
C          4.75281         8.60896         0.33965
C          3.55766        10.68023        -0.54473
C          3.52924        12.14205        -0.34757
C          4.83748         9.96206        -0.34326
C          4.80152        12.88463        -0.42930
C          3.57406        14.97430         0.07276
C          3.57981        16.37811         0.31382
C          4.82517        14.28881         0.03360
C          4.79302        16.95917         0.75712
C          3.57088        19.37835        -0.44153
C          4.85912        19.02655         0.12576
C          6.15443         1.94670         0.42994
C          6.11932         3.38426         0.01210
C          7.40377         1.27092         0.31991
C          7.40870         4.10336         0.18957
C          6.08744         6.33887         0.38527
C          6.07587         7.83223         0.31102
C          7.39941         5.58522         0.27124
C          7.24761         8.47837        -0.37025
C          6.03014        10.64503        -0.37001
C          6.09252        12.11818        -0.53357
C          7.29816         9.95526        -0.32708
C          7.35323        12.77991        -0.10417
C          6.03523        14.94637         0.28485
C          6.03677        16.32922         0.64836
C          7.29449        14.16857         0.39466
C          7.27783        17.12074         0.81279
C          6.13121        19.23806        -0.33055
C          7.31589        18.62370         0.30922
C          8.61450         1.94361        -0.05494
C          8.60061         3.34714        -0.23178
C          9.88169         1.27183        -0.09446
C          9.74996         4.05590        -0.77153
C          8.69530         6.34680        -0.00361
C          8.48491         7.69876        -0.66056
C          9.73478         5.55232        -0.81534
C          9.75553         8.45199        -0.92653
C          8.49680        10.64212        -0.31602
C          8.52421        12.06859        -0.04555
C          9.75203         9.95550        -0.69004
C          9.83497        12.70415         0.42632
C          8.60231        14.88835         0.66875
C          8.59269        16.38308         0.83127
C          9.84511        14.20205         0.27914
C          9.86585        17.10505         0.51105
C          8.63487        19.18866        -0.05262
C          9.83257        18.53637         0.11834
C         11.10077         1.94624        -0.30020
C         11.10151         3.33679        -0.80759
C         12.35268         1.34645        -0.07707
C         12.34914         4.14580        -0.78548
C         11.04369         6.28152        -1.00369
C         11.03139         7.73362        -0.82277
C         12.33576         5.55057        -0.94433
C         12.26724         8.45951        -1.09441
C         11.07175        10.56054        -0.23131
C         11.02988        12.06825        -0.23556
C         12.25937         9.94695        -0.95759
C         12.13235        12.78277        -0.63926
C         11.03947        14.90276         0.00712
C         11.06917        16.33083         0.12047
C         12.25693        14.21423        -0.36686
C         12.28713        17.01598         0.09323
C         11.10713        19.18002        -0.04931
C         12.30369        18.48011         0.07944
C         13.57250         2.06207        -0.22795
C         13.57831         3.47687        -0.56203
C         14.79092         1.41977         0.02536
C         14.80829         4.19323        -0.65587
C         13.56040         6.27698        -0.92686
C         13.57341         7.76601        -0.90425
C         14.79016         5.60022        -0.88787
C         14.84180         8.56910        -1.00228
C         13.52571        10.72781        -1.05027
C         13.24004        12.04952        -1.26016
C         14.79526        10.00581        -1.56674
C         15.06129        13.16834        -1.05923
C         13.50588        14.90286        -0.22074
C         13.50114        16.27912         0.08874
C         14.82075        14.22894        -0.25271
C         14.71026        16.98688         0.65275
C         13.57006        19.14299         0.08039
C         14.76179        18.45540         0.29715
C         16.02467         2.11436        -0.04260
C         16.04987         3.49869        -0.41089
C         17.23051         1.45776         0.29938
C         17.29514         4.17116        -0.46879
C         16.05830         6.34424        -1.14090
C         16.12443         7.82240        -1.10336
C         17.36443         5.57475        -0.93958
C         17.34460         8.50247        -1.03989
C         16.13921        10.75005        -1.28585
C         16.22430        12.26617        -1.02708
C         17.37175         9.96852        -0.95652
C         17.38399        12.81692        -0.31571
C         15.97588        14.76336         0.57722
C         16.02206        16.26755         0.48009
C         17.30356        14.12094         0.21806
C         17.21031        16.95360         0.58284
C         16.00865        19.11596         0.37727
C         17.21196        18.41642         0.58968
C         18.45268         2.13139         0.26755
C         18.48444         3.49291        -0.15613
C         19.65615         1.48702         0.76696
C         19.77819         4.18430        -0.29986
C         18.59263         6.35929        -0.70251
C         18.57737         7.74611        -0.88001
C         19.80673         5.65611        -0.39144
C         19.87191         8.44281        -0.89012
C         18.55468        10.67635        -0.69541
C         18.58567        12.07755        -0.33183
C         19.86548         9.99990        -0.77957
C         19.79099        12.73420         0.08864
C         18.50136        14.81982         0.47923
C         18.47525        16.24367         0.67239
C         19.75550        14.12549         0.42282
C         19.67165        16.95701         0.86429
C         18.43241        19.09353         0.79035
C         19.64288        18.39812         0.96109
C         20.84640         2.12635         0.82955
C         21.02828         3.45950         0.22853
C         22.14910         4.30644         0.64427
C         21.02229         6.33253        -0.19493
C         21.08651         7.74858        -0.44703
C         22.16243         5.63428         0.36235
C         22.26078         8.48975        -0.30033
C         21.07956        10.64164        -0.26913
C         21.03335        12.03110         0.12793
C         22.25587         9.89197        -0.21953
C         22.19371        12.73015         0.52268
C         20.95914        14.82370         0.73963
C         20.92894        16.26194         0.96039
C         22.16119        14.08891         0.80193
C         22.08766        17.00408         1.21176
C         20.85792        19.09778         1.20676
C         22.04607        18.40664         1.34382
O         20.71926         3.51513        -1.20095
O          7.56301         4.77445         1.50336
O          6.25940         7.18675         1.60435
O         12.08126         9.34628        -2.27412
O          7.47530         7.82346        -1.68580
O          9.67155         9.42427        -2.02988
O         10.06745         6.02316        -2.13407
O         10.28978         3.48314        -2.00751
O          5.52202         3.71397        -1.28876
O          5.49017        12.69172        -1.73890
O         14.10878        12.83201        -2.02573
O          7.21384        18.24109         1.71303
O          7.86735        14.23079         1.77452
O         16.80066         5.76865        -2.27461
O          4.72242        18.24782         1.29992
O          2.75886        10.24293        -1.70388
O          9.47502        16.82045         1.90921
O         16.49300        11.69697        -2.35139
O         14.22953         8.34331         0.30866
O         20.06329         9.30628        -2.04809
O          9.91181        12.40236         1.87229
H          9.19767        12.94382         2.29530
O          4.37416         3.21830         2.44422
H          4.52867         2.65774         3.23296
O         14.71070         9.85273        -2.98802
H         14.98881        10.70501        -3.39306
O         14.47933        16.94407         2.12572
H         15.11006        17.57553         2.53493
O          3.28506         2.50478        -0.95281
H          3.14467         3.11965        -1.70792
O         11.24631        10.14561         1.15605
H         10.80478        10.81765         1.73475
O          4.51703         8.99405         1.73249
H          4.94544         8.29809         2.28860
O          2.51913         5.07573        -1.75225
H          2.60244         5.88600        -2.29879
O         15.73963        14.44320         1.98475
H         15.10198        15.11877         2.32559
O          9.32066         6.63813         1.26869
H          8.89554         6.05506         1.94274
H          0.54117         2.00636         2.29466
H          0.45267         4.33027         1.38449
H          2.65480         0.72660         2.34781
H          0.15643         5.73450        -0.37695
H          0.14260         8.17687        -0.30443
H          0.20663        10.16438         0.43825
H          0.22078        12.59429         0.37618
H          0.19497        14.56476        -0.33751
H          0.29604        17.02100        -0.41293
H          1.51539        18.98444        -0.70002
H          4.99749         0.38136         1.36919
H          3.46493        20.34333        -0.96118
H          7.45487         0.20344         0.58224
H          6.29687        19.81427        -1.25205
H          9.91435         0.20674         0.18026
H          8.64770        20.22962        -0.41293
H         12.39772         0.29533         0.24448
H         11.12976        20.27070        -0.19442
H         14.79233         0.35683         0.30794
H         13.59580        20.23536        -0.05470
H         17.19644         0.40438         0.61408
H         16.04051        20.21070         0.26743
H         19.55198         0.47432         1.18407
H         18.43470        20.19307         0.82927
H         21.71038         1.65435         1.32099
H         22.97870         3.84753         1.20237
H         23.04046         6.22346         0.65917
H         23.21462         7.97662        -0.12051
H         23.20706        10.38345         0.02464
H         23.15833        12.20939         0.58079
H         23.10084        14.58831         1.07298
H         23.06151        16.50394         1.29759
H         20.83750        20.19401         1.28663
H         22.97958        18.95288         1.53876
