         410
 CSIRO Nanostructure Databank - Neutral Graphene Oxide Data Set
C         28.54369        27.58858         2.76271
C         28.30574        28.95668         2.33800
C         27.31426        29.75840         2.95233
C         27.82693        31.64400         1.50242
C         27.11870        31.09012         2.59110
C         27.82810        33.08673         1.18352
C         26.65264        33.83941         1.36920
C         27.83983        35.93463         1.02152
C         26.64508        35.22575         1.23361
C         27.86575        37.42635         1.01069
C         26.64463        38.21372         0.77835
C         27.95122        40.23895         0.21641
C         26.71435        39.54334         0.51956
C         27.91260        41.57507        -0.26963
C         26.77227        42.39906        -0.21942
C         27.86902        44.26531        -1.38172
C         26.75417        43.69275        -0.74112
C         27.84710        45.55376        -1.94285
C         30.35941        27.31922         1.08923
C         29.47222        26.81061         2.16214
C         30.21702        28.75446         0.65844
C         29.07167        29.50282         1.28208
C         30.38037        31.81141         0.11138
C         28.67518        30.76139         0.80922
C         30.30107        33.08430         0.63058
C         29.03429        33.77940         0.86162
C         30.30981        35.91076         0.72387
C         29.04671        35.20602         0.87580
C         30.36997        37.29147         0.49177
C         29.17454        38.13025         0.67793
C         30.38870        40.10170        -0.29408
C         29.17719        39.51874         0.16417
C         30.41925        41.42322        -0.79790
C         29.10440        42.06073        -0.99080
C         30.36296        44.08842        -1.94247
C         29.07711        43.43887        -1.58874
C         30.15616        45.28219        -2.66812
C         28.94670        45.99748        -2.67774
C         32.90835        24.55095         0.60881
C         31.72019        25.22600         0.89643
C         32.84867        27.37307         0.65618
C         31.66406        26.62173         0.89341
C         32.80544        28.80167         0.54378
C         31.50994        29.46747         0.24723
C         32.84770        31.68422         0.46439
C         31.59993        31.00211         0.07171
C         32.79925        33.08815         0.74091
C         31.56083        33.77948         0.78004
C         32.77181        35.89526         0.81675
C         31.54060        35.19057         0.78069
C         32.80625        37.27782         0.47049
C         31.60471        37.93008         0.21067
C         32.90971        39.96158        -0.50566
C         31.59757        39.22361        -0.54510
C         32.88605        41.30119        -1.13983
C         31.61456        42.09628        -1.20770
C         32.96713        44.14084        -2.06198
C         31.61124        43.43501        -1.70816
C         33.02980        45.69025        -1.94730
C         32.12902        46.44117        -2.71201
C         33.11851        48.54693        -2.13692
C         32.13119        47.83846        -2.80318
C         35.36529        23.19492        -0.29479
C         35.32651        24.58402        -0.03879
C         34.10178        25.25643         0.36025
C         35.29103        27.42926         0.28950
C         34.08180        26.68066         0.45346
C         35.25643        28.83778         0.39390
C         34.02200        29.52868         0.46050
C         35.28308        31.69107         0.81083
C         34.04837        30.98176         0.53677
C         35.27417        33.08696         1.09539
C         34.01292        33.80183         1.01435
C         35.10299        36.02540         1.60447
C         33.97197        35.19665         1.07897
C         35.21688        37.36368         0.88131
C         34.08419        37.97321         0.38634
C         35.38374        40.01878        -0.23833
C         34.08771        39.34199        -0.14201
C         35.43366        41.36958        -0.73321
C         34.20637        42.00692        -1.27903
C         35.33713        44.27537        -0.91095
C         34.10391        43.50327        -1.26197
C         35.36177        45.74783        -1.05539
C         34.12393        46.43016        -1.39241
C         35.26432        48.62938        -0.88390
C         34.13113        47.85783        -1.44973
C         35.38870        50.08423        -1.08608
C         37.70876        23.31200        -0.98671
C         36.51230        22.58219        -0.76897
C         37.73224        24.69454        -0.64954
C         36.52603        25.33815        -0.21791
C         37.75515        27.47541         0.03046
C         36.51809        26.74362         0.00652
C         37.74973        28.82735         0.35063
C         36.50922        29.63464         0.15032
C         37.72189        31.70123         1.01913
C         36.52453        31.01342         0.76862
C         37.73744        33.10190         1.30633
C         36.48086        33.77960         1.36001
C         37.70931        35.97619         1.77482
C         36.41546        35.22885         1.71492
C         37.74338        37.46712         1.53797
C         36.45597        38.14984         1.06723
C         37.84191        40.00588         0.11062
C         36.52097        39.42570         0.32094
C         37.89298        41.43408        -0.44569
C         36.61377        42.11775        -0.65865
C         37.82949        44.23662        -0.82710
C         36.62170        43.54773        -0.77873
C         37.83138        45.69745        -1.08806
C         36.55161        46.42378        -0.93312
C         37.85782        48.63156        -0.74905
C         36.58623        47.87460        -0.69926
C         37.83103        50.04710        -0.71201
C         36.56873        50.73002        -0.90489
C         40.12217        20.71187        -2.34300
C         38.92637        21.34480        -1.94954
C         40.03289        23.54327        -1.86603
C         38.87118        22.69151        -1.58694
C         40.13855        24.86616        -1.23627
C         38.96373        25.44882        -0.70819
C         40.22370        27.51473        -0.22619
C         39.00168        26.80053        -0.25365
C         40.25731        28.87225         0.26462
C         39.00479        29.48694         0.70442
C         40.27800        31.70261         0.96730
C         39.00735        30.96760         1.07036
C         40.25639        33.12389         1.22058
C         39.01953        33.77184         1.47167
C         40.29854        35.99124         1.87870
C         39.01562        35.22060         1.79783
C         40.26783        37.43800         1.47204
C         39.06737        38.09950         1.27175
C         40.30267        40.22458         0.58645
C         38.99545        39.60075         1.01340
C         40.35008        41.52820         0.08782
C         39.12878        42.21809        -0.31020
C         40.34510        44.31200        -0.89117
C         39.08684        43.56838        -0.63305
C         40.38463        45.77336        -0.84289
C         39.11130        46.48428        -1.02977
C         40.31952        48.63839        -0.72753
C         39.08819        47.94348        -0.80835
C         40.30421        50.06370        -0.62483
C         39.06522        50.77193        -0.62885
C         40.28268        52.88490        -0.45377
C         39.09647        52.19948        -0.53326
C         42.59598        20.73224        -2.52666
C         41.33913        21.39250        -2.39255
C         42.61785        23.55194        -2.03159
C         41.35040        22.85440        -2.29080
C         42.61271        24.91221        -1.60496
C         41.38055        25.55552        -1.21296
C         42.67326        27.54220        -0.51640
C         41.42752        26.87387        -0.66395
C         42.69287        28.84078         0.18817
C         41.44231        29.59178         0.39860
C         42.74255        31.72519         0.72450
C         41.47379        30.99642         0.74757
C         42.74444        33.15916         1.05376
C         41.53339        33.81787         1.27907
C         42.83950        35.99052         1.53345
C         41.61668        35.19574         1.92085
C         42.75973        37.42251         1.48427
C         41.54346        38.12155         1.37838
C         42.76728        40.41599         1.19623
C         41.49647        39.60558         1.19985
C         42.79914        41.70805         0.47158
C         41.60275        42.24896        -0.00101
C         42.87141        44.39337        -0.48076
C         41.65712        43.57636        -0.63024
C         42.84525        45.78345        -0.63958
C         41.58211        46.48357        -0.76056
C         42.79497        48.63927        -0.63396
C         41.57443        47.92937        -0.72372
C         42.78824        50.07293        -0.56046
C         41.54262        50.77528        -0.55073
C         42.76161        52.89726        -0.39684
C         41.53115        52.19573        -0.46759
C         43.77564        21.43557        -2.49327
C         45.07204        23.56483        -2.15197
C         43.82278        22.84671        -2.22263
C         45.08316        24.94067        -1.79147
C         43.85162        25.60421        -1.46490
C         45.13104        27.66298        -0.86863
C         43.87029        26.94270        -0.95740
C         45.15880        28.97082        -0.41084
C         43.98269        29.61620         0.19690
C         45.16085        31.89511         0.13094
C         43.91894        31.07763         0.38384
C         45.21553        33.07003         1.10267
C         44.02874        33.83561         1.30783
C         45.31047        36.03932         1.65921
C         44.05835        35.27375         1.56759
C         45.32370        37.45735         1.45367
C         44.03634        38.17987         1.57842
C         45.32842        40.38424         1.11660
C         44.04686        39.68444         1.46135
C         45.27896        41.59089         0.24224
C         44.03641        42.36616         0.19625
C         45.34769        44.39432        -0.43672
C         44.09861        43.70036        -0.25699
C         45.32870        45.82228        -0.56849
C         44.07819        46.52200        -0.59187
C         45.28433        48.66519        -0.53068
C         44.05440        47.93843        -0.60260
C         45.27011        50.08667        -0.47873
C         44.01171        50.79802        -0.48411
C         43.96141        52.21761        -0.40496
C         47.49194        23.61803        -2.44667
C         46.30212        22.92688        -2.46794
C         47.54496        24.98708        -2.07760
C         46.33256        25.65086        -1.72441
C         47.59985        27.71472        -1.24790
C         46.36429        27.01212        -1.28931
C         47.65465        29.04505        -0.73594
C         46.45619        29.59459        -0.02302
C         47.66193        31.69399         0.30304
C         46.43543        31.08986         0.06743
C         47.70466        32.86786         1.14201
C         46.47659        33.37153         1.64451
C         47.78531        36.11604         1.83084
C         46.53248        35.49048         2.08520
C         47.77385        37.44423         1.33085
C         46.53926        38.15265         1.33625
C         47.82534        40.21597         0.55921
C         46.60519        39.61803         1.14506
C         47.84887        41.55990         0.13171
C         46.57525        42.24441        -0.15868
C         47.83048        44.36369        -0.48309
C         46.58947        43.70086        -0.38065
C         47.85394        45.82548        -0.87046
C         46.54957        46.54680        -0.59605
C         47.77753        48.67880        -0.38010
C         46.53488        47.95161        -0.52706
C         47.71366        50.10210        -0.35196
C         46.51494        50.77513        -0.41548
C         50.03420        25.07963        -2.39019
C         48.80312        25.69692        -2.04453
C         50.06362        27.76159        -1.61450
C         48.82559        27.06135        -1.64940
C         50.05320        29.19612        -1.29921
C         48.84247        29.78180        -0.70958
C         50.15179        31.71696         0.16799
C         48.90345        31.05723        -0.07483
C         50.18105        32.95480         0.91299
C         48.97961        33.33613         1.54518
C         50.22900        35.94141         1.38808
C         49.03903        35.45060         1.95693
C         50.21766        37.30424         0.94542
C         49.00528        38.05582         0.94266
C         50.20718        40.02130         0.09539
C         49.00904        39.43496         0.56501
C         50.30966        41.50299         0.11708
C         49.05549        42.25945        -0.12941
C         50.34232        44.41125        -0.44077
C         49.05513        43.64735        -0.40389
C         50.29020        45.89006        -0.27410
C         49.08895        46.55933        -0.37739
C         50.20092        48.68477         0.20767
C         49.00504        47.98902        -0.20891
C         51.23512        25.75495        -2.29805
C         52.56514        27.76789        -1.58784
C         51.29010        27.11341        -1.88874
C         52.58235        29.02865        -0.99667
C         51.38567        29.87161        -0.98163
C         52.61149        31.70466         0.19300
C         51.37960        31.10521        -0.17660
C         52.62390        33.05370         0.66639
C         51.40445        33.72718         0.99752
C         52.66420        35.86792         0.97592
C         51.42931        35.15496         1.17769
C         52.70560        37.27312         0.69730
C         51.42616        37.90110         0.47881
C         53.16048        40.25188         0.04876
C         51.29277        39.17955        -0.11144
C         52.95313        41.58971         0.32435
C         51.60613        42.23411         0.23413
C         52.69715        44.44441         0.67589
C         51.61463        43.70372        -0.05792
C         52.68903        45.94907         0.64171
C         51.61103        46.65136        -0.19706
C         51.40454        48.07176         0.26050
C         55.03081        27.68687        -1.58670
C         53.82930        27.13137        -1.90118
C         55.12385        28.84522        -0.69465
C         53.79217        29.57163        -0.37487
C         55.08183        31.61673         0.24312
C         53.84626        30.99701         0.00783
C         55.10705        33.00736         0.64465
C         53.88155        33.72151         0.79719
C         55.13102        35.82786         1.11536
C         53.89906        35.13618         0.98351
C         55.13004        37.27403         1.19755
C         53.97195        37.99540         0.78961
C         55.22147        40.13925         1.28214
C         54.12793        39.43659         0.69699
C         55.20423        41.59534         1.32407
C         54.02777        42.30819         0.93373
C         55.06870        44.45952         1.45000
C         53.94633        43.72769         1.03154
C         55.06393        45.90727         1.33687
C         53.99221        46.60453         0.88286
C         56.33503        29.66875        -0.62454
C         56.30790        30.92525        -0.10846
C         56.31818        33.71132         0.86645
C         56.32941        35.07168         1.11641
C         56.27535        37.98157         1.66150
C         56.30030        39.35712         1.77674
C         56.29918        42.36902         1.79675
C         56.23945        43.75075         1.83875
O         43.54481        28.85045         1.40193
O         52.33714        39.64564        -0.90583
O         46.52313        34.25383         2.73786
O         29.23379        31.20598        -0.40499
O         39.02519        29.93565         2.12063
O         44.07245        39.06686         2.76554
O         46.18257        40.48415         2.29199
O         38.13740        40.23795        -1.28804
O         37.02588        35.55875         3.00596
O         49.07179        34.22498         2.63343
O         41.09827        43.68162        -1.98565
O         39.58573        35.65586         3.10882
O         50.73255        30.03581        -2.29195
O         34.28762        43.94269         0.11015
O         51.36033        44.01036        -1.45432
O         29.74998        27.67281        -0.21040
O         35.72087        48.22476         0.44085
O         33.63339        41.33266        -2.42881
O         31.17266        45.77767        -3.49555
O         40.48365        23.52862        -3.25859
O         45.79829        41.41565        -1.12984
O         28.81380        42.25640        -2.43496
O         52.15322        45.24067         1.79622
O         50.85477        41.93148         1.46655
O         38.49786        46.08820        -2.34862
O         28.69531        38.01446         2.07255
O         36.90576        38.21264         2.47829
O         31.60650        30.08670        -1.07209
O         54.43675        28.67500         0.58340
O         41.90890        40.41079         2.38188
O         52.16292        46.71025        -1.54786
H         51.42508        46.87970        -2.17081
O         45.01801        32.49200        -1.21197
H         44.23779        33.08685        -1.18363
O         36.51260        29.93112        -1.31395
H         36.26288        29.10453        -1.78113
O         47.99705        45.84651        -2.33863
H         47.23361        45.35963        -2.71634
O         41.90170        34.88040         3.31984
H         41.03247        34.87406         3.79192
O         31.44546        38.80419        -1.95345
H         31.66580        39.57528        -2.52087
O         38.69031        40.23270         2.29239
H         39.40084        39.99611         2.92717
O         33.24534        43.84642        -3.44563
H         32.51060        44.22092        -3.98095
O         46.62894        29.14647         1.39890
H         45.73431        29.09739         1.80699
O         34.68612        36.38022         2.95215
H         35.50435        36.66823         3.42608
H         27.93634        27.18865         3.58792
H         26.72607        29.33004         3.77629
H         26.41737        31.71329         3.16369
H         25.71559        33.31881         1.61182
H         25.69735        35.76679         1.36016
H         25.66172        37.72575         0.84318
H         25.77330        40.09795         0.40169
H         25.86240        42.03299         0.27519
H         25.83638        44.29197        -0.65074
H         26.93911        46.16884        -1.87187
H         29.64952        25.79002         2.53274
H         28.89694        46.93682        -3.24345
H         32.89244        23.45382         0.57327
H         30.80540        24.64515         1.07957
H         33.12410        49.64241        -2.19437
H         31.37008        48.34681        -3.40770
H         34.46497        22.58243        -0.15283
H         34.49783        50.67541        -1.33986
H         36.47984        21.50748        -0.99142
H         36.57727        51.82320        -1.01224
H         40.11299        19.62485        -2.50965
H         38.03461        20.71328        -1.83560
H         40.28245        53.98174        -0.37622
H         38.15655        52.76628        -0.50864
H         42.60998        19.64191        -2.66939
H         42.75005        53.99482        -0.33356
H         44.71403        20.88100        -2.62232
H         44.89148        52.79758        -0.34506
H         48.41219        23.08446        -2.71686
H         46.31612        21.86861        -2.75783
H         48.64005        50.68900        -0.29731
H         46.53489        51.87259        -0.40355
H         50.05262        24.03117        -2.71529
H         50.12983        49.73945         0.50843
H         52.16045        25.21370        -2.53595
H         52.28828        48.64861         0.56913
H         55.95985        27.26907        -2.00249
H         53.81908        26.23236        -2.53306
H         56.00776        46.43562         1.54014
H         54.09159        47.68149         0.68405
H         57.27572        29.25334        -1.01602
H         57.25357        31.48155        -0.05381
H         57.27875        33.18105         0.82618
H         57.29597        35.57562         1.25230
H         57.14511        37.41072         2.01485
H         57.17751        39.84291         2.22524
H         57.22526        41.86807         2.11185
H         57.11706        44.32154         2.17552
