         424
 CSIRO Nanostructure Databank - Neutral Graphene Oxide Data Set
C          1.14237         3.87388         1.86417
C         -0.04465         4.57151         1.75129
C          1.15166         6.56413         1.02184
C         -0.04320         5.91535         1.33686
C          1.15114         7.99105         0.63136
C         -0.03934         8.64666         0.25386
C          1.11891        10.77710         0.02049
C         -0.05561        10.01971        -0.00067
C          1.14730        12.28798        -0.10061
C         -0.11064        12.90594        -0.65917
C          1.13129        14.77692        -1.70342
C         -0.12149        14.06722        -1.32410
C          1.09288        16.28992        -1.87634
C          0.09886        16.93322        -0.94045
C          1.26986        19.09124        -0.98642
C          0.18711        18.23353        -0.57364
C          1.30257        20.44981        -0.68592
C          0.12716        21.13194        -0.15342
C          1.42455        23.20718         0.30985
C          0.14264        22.42656         0.21983
C          1.28595        24.70511         0.07464
C          0.14240        25.39222         0.43913
C          1.14661        27.60442         0.09237
C          0.08381        26.81931         0.46832
C          1.14036        29.06262         0.22161
C         -0.05526        29.78337         0.45423
C          1.14391        31.91768         0.47801
C         -0.05194        31.16523         0.55810
C          1.14945        33.36624         0.61063
C         -0.04893        34.11189         0.70700
C          1.18078        36.20563         0.89282
C         -0.03651        35.49330         0.83814
C          1.20912        37.63377         1.03895
C          3.56542         3.68856         1.82776
C          2.39269         4.46025         1.51535
C          3.60022         6.59874         0.91708
C          2.38729         5.83915         1.07670
C          3.56749         8.08267         1.24644
C          2.34529         8.73802         0.64353
C          3.59442        10.80091         0.00380
C          2.35440        10.11706         0.28612
C          3.59899        12.08442        -0.63226
C          2.41000        12.76887        -0.79043
C          3.69249        14.84945        -1.43957
C          2.42372        14.07966        -1.47203
C          3.64795        16.29467        -1.57528
C          2.44409        16.97498        -1.72996
C          3.67242        19.18020        -1.64347
C          2.36393        18.48091        -1.85324
C          3.65544        20.68080        -1.71422
C          2.47905        21.25921        -0.92810
C          3.70820        23.37247        -0.73705
C          2.52091        22.58170        -0.52775
C          3.65288        24.79571        -0.60777
C          2.44627        25.44001        -0.33361
C          3.63500        27.60436         0.03637
C          2.36807        26.94140        -0.52048
C          3.58752        29.09368        -0.23303
C          2.34078        29.80785         0.10766
C          3.63002        31.93684         0.31260
C          2.36647        31.21748         0.26923
C          3.63040        33.35181         0.53844
C          2.39241        34.06314         0.64703
C          3.64426        36.19309         0.87117
C          2.40811        35.48618         0.80147
C          3.65175        37.62013         1.03342
C          2.39330        38.31388         1.10532
C          6.12444         3.59946         1.69214
C          4.82231         3.93320         1.26544
C          6.10916         6.52856         0.87694
C          4.80546         5.97982         0.64702
C          6.16611         8.00627         0.83193
C          4.89014         8.77904         0.87102
C          6.11989        10.63416        -0.47070
C          4.82353        10.01431         0.02019
C          6.14103        12.04433        -0.84018
C          4.84881        12.64742        -1.32222
C          6.14479        14.86996        -1.28492
C          4.88345        14.16591        -1.31671
C          6.13738        16.30643        -1.43672
C          4.92115        16.98762        -1.59358
C          6.23343        19.21043        -1.68836
C          4.90062        18.43961        -1.82651
C          6.17631        20.63692        -1.32280
C          4.96406        21.32679        -1.30961
C          6.17819        23.43761        -0.85600
C          4.93792        22.71736        -1.01049
C          6.17018        24.83042        -0.71486
C          4.88908        25.58258        -0.99928
C          6.11837        27.67037        -0.25908
C          4.91259        26.98026        -0.44584
C          6.11658        29.05148         0.06880
C          4.90538        29.83915        -0.14041
C          6.10340        31.93239         0.41103
C          4.85959        31.25860         0.22782
C          6.09995        33.35594         0.54832
C          4.86651        34.05619         0.62301
C          6.10475        36.18414         0.91218
C          4.87640        35.48532         0.79602
C          6.10950        37.61432         1.08352
C          4.86755        38.30504         1.12762
C          8.54934         3.74058         1.52721
C          7.28951         4.34838         1.32785
C          8.57447         6.54412         1.06331
C          7.26548         5.76749         0.97269
C          8.55436         7.86856         0.31903
C          7.40150         8.58622         0.26763
C          8.56572        10.53341        -0.82436
C          7.42170        10.07731         0.06332
C          8.60871        12.04465        -0.83150
C          7.36578        12.73855        -0.92088
C          8.62074        14.87209        -1.11566
C          7.36404        14.17645        -1.12284
C          8.62774        16.30421        -1.20462
C          7.40159        17.02432        -1.35938
C          8.64796        19.14760        -1.12039
C          7.43796        18.43660        -1.35647
C          8.64363        20.57918        -0.98533
C          7.40910        21.30292        -1.00849
C          8.63908        23.40693        -0.62408
C          7.41111        22.70636        -0.81666
C          8.62426        24.82077        -0.46626
C          7.38498        25.54163        -0.49788
C          8.60652        27.64896        -0.09726
C          7.38214        26.94404        -0.29346
C          8.60710        29.05350         0.15313
C          7.33937        29.72273         0.61481
C          8.55792        31.91723         0.33130
C          7.32846        31.21613         0.40523
C          8.55799        33.35586         0.46483
C          7.34425        34.05476         0.63165
C          8.56655        36.15970         1.03470
C          7.34716        35.47728         0.85501
C          8.57653        37.59898         1.23934
C          7.33457        38.29589         1.21352
C         11.02717         3.64621         1.25382
C          9.78088         4.37101         1.17073
C         11.02844         6.29191         0.15593
C          9.78563         5.70932         0.77238
C         11.04162         7.79112         0.08657
C          9.82438         8.51802        -0.02616
C         11.10977        10.51274        -0.86906
C          9.84031         9.85471        -0.42423
C         11.08139        12.02087        -0.77068
C          9.84933        12.72381        -0.87751
C         11.09402        14.86499        -1.03408
C          9.84526        14.16642        -0.98977
C         11.10108        16.28996        -1.11398
C          9.86478        17.00772        -1.14256
C         11.11475        19.14988        -0.99313
C          9.87801        18.43566        -1.07241
C         11.11655        20.56481        -0.85773
C          9.86910        21.27651        -0.80506
C         11.10438        23.39738        -0.43701
C          9.87320        22.69074        -0.62395
C         11.07282        24.79347        -0.25821
C          9.85060        25.52542        -0.30815
C         11.08144        27.68164        -0.11753
C          9.84617        26.94724        -0.17084
C         11.06486        29.10096        -0.09200
C          9.80585        29.79530         0.06623
C         11.00468        31.99907        -0.24443
C          9.78129        31.21647         0.15313
C         11.02544        33.39194         0.33552
C          9.80489        34.06235         0.55908
C         11.03341        36.12169         1.12055
C          9.80658        35.44858         0.93052
C         11.04248        37.49599         1.74173
C          9.78122        38.26046         1.47289
C         13.49439         3.65405         1.43866
C         12.24249         4.31986         1.16436
C         13.45670         6.45035         0.82195
C         12.27302         5.71131         0.78096
C         13.50308         7.80745         0.41537
C         12.27920         8.50006         0.05848
C         13.51150        10.67606         0.12336
C         12.30048         9.87090        -0.23247
C         13.54078        12.04485        -0.50527
C         12.32040        12.71935        -0.74979
C         13.55918        14.85632        -1.02631
C         12.32621        14.15261        -0.95599
C         13.54730        16.27095        -1.13161
C         12.34366        16.99246        -1.13664
C         13.55905        19.16686        -1.20196
C         12.35847        18.44966        -1.10491
C         13.58329        20.58844        -1.05987
C         12.34931        21.27689        -0.80772
C         13.59516        23.36726        -0.53026
C         12.36369        22.68499        -0.55925
C         13.63408        24.77571        -0.12132
C         12.30938        25.52511         0.03472
C         13.54670        27.69139        -0.14886
C         12.32180        26.98957        -0.08718
C         13.52261        29.10489        -0.20041
C         12.30198        29.81585        -0.13335
C         13.50605        31.97303         0.01353
C         12.30358        31.25529        -0.07754
C         13.49462        33.40521         0.23249
C         12.24757        34.08559         0.45014
C         13.48303        36.19977         0.82757
C         12.24856        35.46636         0.83950
C         13.46752        37.64472         1.07106
C         12.28755        38.26982         1.43094
C         15.93123         3.68714         1.75284
C         14.68572         4.34101         1.48389
C         15.98073         6.44844         0.98238
C         14.68209         5.85446         1.47231
C         16.00789         7.78333         0.44439
C         14.75721         8.49957         0.24335
C         15.97252        10.53517        -0.51235
C         14.75687         9.85463        -0.09068
C         15.99823        11.99589        -0.63094
C         14.79548        12.71356        -0.66444
C         16.04529        14.80723        -1.05971
C         14.81503        14.13870        -0.94614
C         16.04976        16.24152        -1.53105
C         14.84528        17.02877        -1.01037
C         16.08964        19.14491        -1.43463
C         14.79236        18.41449        -1.65641
C         16.04963        20.63592        -1.67945
C         14.79658        21.32075        -1.16786
C         16.04084        23.47918        -0.90788
C         14.82164        22.71575        -0.89327
C         16.06182        24.86780        -0.62869
C         14.84630        25.57213        -0.35058
C         16.04915        27.69945        -0.25334
C         14.81415        26.97081        -0.25231
C         16.05212        29.12073        -0.15474
C         14.78693        29.86033        -0.50974
C         15.96927        31.98810         0.09506
C         14.76646        31.29361        -0.05123
C         15.96566        33.42651         0.20630
C         14.70043        34.12706         0.27277
C         15.89086        36.33425         0.27786
C         14.66417        35.54784         0.48121
C         15.91710        37.75187         0.69758
C         14.69562        38.37605         0.99654
C         18.36412         3.76916         2.15614
C         17.13345         4.37195         1.67768
C         18.44240         6.36776         0.87186
C         17.15212         5.73209         1.16794
C         18.47026         7.81754         0.63638
C         17.23790         8.44614         0.28479
C         18.52847        10.59874        -0.11482
C         17.30158         9.79510        -0.29851
C         18.52679        11.97245        -0.44120
C         17.30277        12.62283        -1.06358
C         18.49658        14.84726        -0.88984
C         17.28537        14.12873        -0.94440
C         18.50822        16.29791        -1.02054
C         17.32314        17.00075        -1.23401
C         18.56135        19.14679        -1.27238
C         17.30151        18.44710        -1.32755
C         18.59098        20.62615        -1.59797
C         17.30731        21.32488        -1.12156
C         18.57498        23.49497        -0.90532
C         17.31334        22.84047        -1.42772
C         18.55526        24.87668        -0.59500
C         17.30120        25.58987        -0.54521
C         18.51461        27.69986        -0.07329
C         17.28808        26.98524        -0.28901
C         18.49118        29.10902         0.15754
C         17.24012        29.82490         0.06453
C         18.41267        31.97769         0.39866
C         17.23214        31.27717         0.16972
C         18.42467        33.41723         0.40443
C         17.18136        34.11560         0.28232
C         18.44487        36.30147         0.50440
C         17.20829        35.58324         0.17615
C         18.40297        37.71200         0.69617
C         17.15553        38.40880         0.77281
C         19.55607         4.41416         2.13696
C         20.82542         6.59884         1.73409
C         19.72324         5.69539         1.42443
C         20.82125         7.90081         1.31764
C         19.67344         8.53857         0.72772
C         20.85589        10.74656         0.54855
C         19.69053         9.96288         0.40016
C         20.86414        12.08793         0.20660
C         19.71186        12.72940        -0.30166
C         20.91919        14.88520        -0.60122
C         19.72900        14.15744        -0.62426
C         20.93946        16.27744        -0.77409
C         19.76377        17.00681        -0.94766
C         20.98876        19.19029        -1.02396
C         19.76821        18.45328        -1.09804
C         20.99439        20.58233        -0.95562
C         19.82434        21.33729        -1.09212
C         20.97502        23.46109        -0.48930
C         19.78616        22.76114        -0.84748
C         20.96716        24.81614        -0.23995
C         19.76527        25.56283        -0.28167
C         20.92502        27.70132         0.28476
C         19.74926        26.98888        -0.02542
C         20.89114        29.07102         0.53009
C         19.69555        29.79451         0.44895
C         20.90213        32.02961         0.37941
C         19.67784        31.26152         0.81163
C         20.87597        33.38329         0.32004
C         19.64722        34.13088         0.46213
C         20.85280        36.30384         0.83183
C         19.66096        35.57974         0.59351
C         20.82492        37.69411         0.97658
C         19.62593        38.39715         0.91951
O          4.23034        29.53763        -1.43933
O          5.35745         9.74957        -1.35516
O         16.70201         9.87012        -1.63535
O         16.51934        36.09601        -1.02656
O         13.03614        25.01825         1.20642
O          4.77692         4.70226         0.07773
O          5.77779         8.80738         2.05881
O          5.69323        18.89786        -3.00436
O         19.35345         5.61422         0.01207
O          1.78826        14.10734        -2.83557
O         11.06084        37.26651         3.21991
H         10.26285        36.73716         3.43500
O          8.70465         6.94496         2.48199
H          7.93375         7.51404         2.69708
O          4.85163        25.73096        -2.46376
H          4.86755        24.82821        -2.84812
O          1.95728        18.79522        -3.24649
H          1.31027        18.08439        -3.51054
O         13.43352        10.94960         1.58763
H         13.33493        10.08124         2.03497
O         17.23030        21.16945         0.30909
H         18.05132        21.53159         0.70444
O          4.75046        12.23583        -2.72228
H          4.84736        11.25448        -2.73003
O         18.63030        20.70663        -3.07057
H         19.49316        20.33795        -3.35694
O          7.64833        10.67478         1.36615
H          7.03283        10.23109         1.99929
O         14.59473         6.25238         2.89181
H         13.77111         5.85762         3.25061
O         14.62727        18.28466        -3.09416
H         14.85638        19.15981        -3.48709
O          3.38795         8.21999         2.68168
H          4.28879         8.26451         3.07915
O          0.60988        16.50459        -3.24866
H          1.04695        15.80834        -3.79326
O         11.17058        10.23281        -2.34876
H         11.44289         9.29340        -2.44738
O         14.81133        29.94498        -1.99235
H         15.61217        30.45510        -2.24045
O         17.30989        23.08237        -2.85977
H         16.59514        22.52305        -3.25083
O         15.99333        20.77287        -3.14456
H         16.89294        20.51556        -3.48051
O         11.03688         5.84761        -1.26881
H         11.12543         4.86982        -1.25638
O         15.95991        16.14305        -2.97999
H         16.60930        15.46948        -3.27324
O          3.58495        27.41071         1.47881
H          4.43549        27.71285         1.86396
O          1.86942        23.09464         1.70884
H          1.98261        22.14028         1.90315
O          7.28760        29.52614         2.10340
H          8.12064        29.89140         2.47212
O         15.04632        17.26565         0.40704
H         15.01248        16.40274         0.87076
O         17.40487        12.36558        -2.51449
H         17.27077        11.39075        -2.62512
O          3.44435        21.05743        -3.11846
H          2.84790        20.36978        -3.50855
O          8.29908        10.11056        -2.19016
H          9.14127        10.23025        -2.69102
O         19.68704        31.29214         2.28801
H         19.67449        32.23594         2.55545
O         10.86416        32.19411        -1.71079
H         11.68176        32.63790        -2.02326
O          2.34575        27.22055        -1.94065
H          1.60896        26.71849        -2.34489
O          1.23819        12.79879         1.28408
H          1.90468        12.25296         1.75385
H          1.13147         2.83224         2.21664
H         -0.99582         4.08420         2.00679
H         -0.99887         6.45501         1.29646
H         -0.98475         8.09122         0.19284
H         -1.01910        10.49386        -0.23163
H         -1.07047        12.42529        -0.42007
H         -1.07493        14.48735        -1.68078
H         -0.73836        16.32513        -0.56753
H         -0.57965        18.63931         0.10308
H         -0.82661        20.58548        -0.13257
H         -0.78649        22.88739         0.58549
H         -0.73879        24.84593         0.80223
H         -0.82834        27.27780         0.87736
H         -1.01281        29.24936         0.52567
H         -1.01035        31.67562         0.72291
H         -1.01943        33.59924         0.66822
H         -0.98583        36.04436         0.90391
H          0.25348        38.17491         1.10036
H          3.46139         2.89775         2.58675
H          2.40111        39.40753         1.22162
H          6.26518         2.74086         2.36708
H          4.86681        39.39810         1.25381
H          8.57861         2.69549         1.87104
H          7.33290        39.38802         1.34681
H         11.00973         2.58506         1.54197
H          9.77765        39.34794         1.64305
H         13.48479         2.56348         1.59157
H         12.28400        39.35472         1.61724
H         15.92562         2.61921         2.02083
H         14.68781        39.44566         1.25574
H         18.28528         2.78576         2.64406
H         17.17420        39.48227         1.01491
H         20.43664         3.97097         2.62609
H         21.65386         6.22404         2.35349
H         21.70337         8.51361         1.54793
H         21.78099        10.30134         0.93656
H         21.79522        12.65234         0.34649
H         21.87845        14.37775        -0.43525
H         21.91329        16.78289        -0.74504
H         21.94410        18.66392        -0.90868
H         21.95238        21.07610        -0.74227
H         21.93215        22.92702        -0.43379
H         21.91761        25.30944         0.00206
H         21.88958        27.18187         0.35448
H         21.82533        29.58030         0.80303
H         21.85499        31.50044         0.23756
H         21.80484        33.93055         0.10345
H         21.81405        35.77832         0.90880
H         21.76481        38.23548         1.15453
H         19.61565        39.48727         1.06037
