         638
 CSIRO Nanostructure Databank - Neutral Graphene Oxide Data Set
C         23.47093        69.72664        -2.34453
C         23.48285        71.09042        -2.63498
C         22.51611        71.71203        -3.45619
C         23.75281        73.82621        -3.46119
C         22.64400        73.05783        -3.82627
C         25.49927        65.64326        -0.49966
C         25.45600        67.03323        -0.59652
C         24.42473        67.70867        -1.29731
C         25.64863        69.83945        -1.14431
C         24.48530        69.08676        -1.56109
C         25.82942        71.21020        -1.75715
C         24.50935        71.96570        -1.94374
C         25.94859        73.99598        -2.36458
C         24.77122        73.29861        -2.62947
C         27.89908        61.36940        -0.16283
C         27.85297        62.75924         0.06284
C         26.70962        63.50894        -0.18867
C         27.79257        65.63682         0.40627
C         26.65798        64.94002        -0.04318
C         27.76493        67.10108         0.54705
C         26.53718        67.83759         0.01051
C         27.89600        69.95524        -0.12187
C         26.66430        69.25272        -0.40539
C         27.92414        71.42138        -0.27022
C         26.78824        72.09940        -1.00095
C         28.15189        74.15216        -1.22430
C         26.99870        73.46080        -1.55000
C         30.41353        57.13432        -0.36308
C         30.38611        58.54675        -0.35230
C         29.15551        59.26155        -0.25147
C         30.37564        61.40098        -0.03088
C         29.12312        60.65241        -0.11115
C         30.36724        62.76900         0.21180
C         29.06509        63.38054         0.72425
C         30.33266        65.66875         0.58848
C         29.04011        64.90833         0.71878
C         30.26237        67.11744         0.11505
C         29.07681        67.85840         0.74698
C         30.30263        70.00468         0.33411
C         29.06005        69.29600         0.24833
C         30.34881        71.42603         0.18072
C         29.18331        72.14763        -0.14400
C         30.42542        74.24825        -0.26196
C         29.25477        73.54769        -0.50598
C         32.88810        52.85356        -0.19350
C         32.87897        54.27153        -0.26029
C         31.65735        54.98735        -0.26180
C         32.87787        57.09218        -0.44245
C         31.63472        56.39339        -0.35877
C         32.87619        58.55721        -0.80202
C         31.60524        59.29087        -0.44009
C         32.83470        61.43836        -0.27085
C         31.61846        60.69591        -0.27588
C         32.84970        62.83865        -0.09075
C         31.58774        63.53936         0.12982
C         32.76867        65.73433         0.01896
C         31.56785        64.92743         0.25597
C         32.76579        67.17839         0.35650
C         31.55345        67.86438         0.37831
C         32.76808        69.98974         0.59845
C         31.53415        69.28357         0.48007
C         32.75647        71.42530         0.63207
C         31.58995        72.12181         0.38719
C         32.91784        74.19322         0.02412
C         31.58847        73.63300         0.45977
C         35.24687        48.47554        -0.26920
C         35.27554        49.98502        -0.12469
C         34.09826        50.70175        -0.15995
C         35.34416        52.83654        -0.17190
C         34.09028        52.13481        -0.16452
C         35.36250        54.26319        -0.29311
C         34.12573        54.97969        -0.33675
C         35.35253        57.14887        -0.48788
C         34.10403        56.41108        -0.43037
C         35.37419        58.53101        -0.35637
C         34.07103        59.27221        -0.14665
C         35.36163        61.42405        -0.06076
C         34.13033        60.73643        -0.58600
C         35.34840        62.85301         0.06200
C         34.09240        63.53770        -0.00750
C         35.30155        65.75167         0.38748
C         34.10384        65.00460        -0.03159
C         35.25064        67.13514         0.57167
C         34.00564        67.87382         0.50382
C         35.25620        70.02390         0.75115
C         34.00036        69.28270         0.64101
C         35.27139        71.39334         0.90905
C         33.99547        72.19189         1.03009
C         35.36700        74.12988         0.10094
C         34.07762        73.52984         0.30604
C         37.77331        44.19464        -0.01503
C         37.71537        45.63671         0.02850
C         36.52523        46.31975         0.15389
C         37.74904        48.52259         0.05318
C         36.46085        47.80615         0.39876
C         37.75871        49.92733        -0.01982
C         36.53215        50.67542        -0.05924
C         37.81313        52.81187        -0.07382
C         36.55776        52.09942        -0.10326
C         37.82285        54.25413        -0.20722
C         36.61079        54.95108        -0.37427
C         37.86309        57.14958        -0.38209
C         36.62248        56.40387        -0.80444
C         37.84765        58.53085        -0.20351
C         36.59261        59.26904        -0.22929
C         37.80898        61.44506         0.05211
C         36.55013        60.68339        -0.03530
C         37.79796        62.88166         0.42930
C         36.55537        63.58662         0.25786
C         37.74062        65.69112         0.69696
C         36.55207        65.01987         0.46626
C         37.71061        67.10579         1.18609
C         36.47672        67.87826         0.78313
C         37.80087        69.97428         0.56312
C         36.49142        69.25368         0.77649
C         37.81243        71.42208         0.94951
C         36.53366        72.17516         1.19506
C         37.80109        74.19268         0.36490
C         36.55366        73.52847         0.49171
C         40.22556        39.91463        -0.16834
C         40.19212        41.34168         0.00480
C         38.98485        42.06754        -0.07586
C         40.24321        44.21001        -0.48208
C         38.96031        43.48563        -0.14114
C         40.23320        45.66578        -0.08785
C         38.96706        46.37984        -0.01881
C         40.26523        48.47911        -0.30024
C         38.95425        47.77560        -0.03469
C         40.21894        49.96439        -0.06571
C         39.02710        50.64939        -0.03367
C         40.26941        52.80969         0.11694
C         39.02004        52.10416        -0.00067
C         40.26692        54.25374         0.09052
C         39.08160        54.94570        -0.16088
C         40.35378        57.09942         0.06868
C         39.16613        56.40573        -0.55418
C         40.30643        58.54634         0.19742
C         39.08450        59.22872         0.05113
C         40.27838        61.36442         0.65665
C         39.10036        60.69318         0.10564
C         40.17580        62.74204         1.26422
C         38.97730        63.52497         0.75967
C         40.23847        65.73127         1.13879
C         39.06789        65.00829         0.51182
C         40.24775        67.09481         1.24971
C         39.01666        67.85643         1.03659
C         40.21628        69.99385         1.52267
C         39.01964        69.21490         1.02554
C         40.26603        71.40925         1.01151
C         39.01116        72.10848         0.90044
C         40.26194        74.20944         0.55092
C         39.01830        73.55125         0.66122
C         42.73030        35.95700        -1.62900
C         42.65958        37.18343        -0.91603
C         41.47427        37.89460        -0.81413
C         42.67188        39.78653         0.27670
C         41.40525        39.18234        -0.19028
C         42.64932        41.33589         0.42701
C         41.42447        42.05111         0.13090
C         42.65824        44.15849         0.22106
C         41.48722        43.47943        -0.02774
C         42.70148        45.62323         0.06326
C         41.40876        46.33106         0.12350
C         42.70325        48.52816         0.46046
C         41.37308        47.79551         0.50297
C         42.69651        49.90028         0.41535
C         41.53876        50.66972        -0.18527
C         42.72506        52.81807         0.33637
C         41.47913        52.12006         0.20236
C         42.72536        54.26624         0.38688
C         41.52028        54.95899         0.27481
C         42.68803        57.12475         0.98383
C         41.48789        56.40165         0.39848
C         42.80510        58.52715         0.38138
C         41.49887        59.26685         0.44785
C         42.65688        61.35450         1.31967
C         41.45891        60.65690         0.73650
C         42.65269        62.84106         1.05127
C         41.48036        63.50775         1.15143
C         42.75772        65.68505         1.38448
C         41.45137        64.95293         1.57829
C         42.72303        67.11208         1.54834
C         41.50814        67.82376         1.46904
C         42.74131        69.96861         1.35646
C         41.51205        69.24040         1.42885
C         42.73025        71.38971         1.11278
C         41.47560        72.08558         0.92833
C         42.72044        74.19864         0.61632
C         41.48396        73.51894         0.68190
C         45.08226        33.38073        -2.87962
C         43.93702        34.02430        -2.57964
C         45.17899        35.80858        -1.37914
C         43.92909        35.28493        -1.85375
C         45.17820        36.97496        -0.48598
C         43.85530        37.64689        -0.10798
C         45.20893        39.78021         0.54682
C         43.93943        39.15629        -0.01259
C         45.20698        41.29257         0.45443
C         43.94702        42.05551         0.13169
C         45.19230        44.19545         0.62123
C         43.88347        43.44078         0.77396
C         45.20894        45.59541         0.65667
C         43.97305        46.35754         0.36471
C         45.16759        48.47465         0.79191
C         43.94151        47.80454         0.65017
C         45.20002        49.91436         0.80340
C         43.89334        50.67243         0.89715
C         45.19097        52.81924         0.37650
C         43.91504        52.10263         0.42468
C         45.20241        54.27787         0.58756
C         43.98374        54.97382         0.58592
C         45.19930        57.06670         0.94686
C         43.99367        56.38017         0.80709
C         45.19058        58.51247         1.37770
C         43.98487        59.29799         0.91877
C         45.18925        61.42710         1.13041
C         43.96063        60.65940         1.04191
C         45.21050        62.80838         1.11027
C         43.94504        63.55998         0.74428
C         45.22837        65.74863         0.95067
C         43.93389        65.00780         1.15860
C         45.22999        67.15028         1.48130
C         43.97903        67.84649         1.92446
C         45.20229        70.00124         1.40613
C         43.97323        69.29471         1.50848
C         45.18967        71.41388         1.18905
C         43.94590        72.09672         1.03697
C         45.17695        74.21862         0.72004
C         43.94481        73.52768         0.79122
C         46.43665        33.95491        -2.59099
C         47.61721        35.92616        -1.62203
C         46.40167        35.24725        -1.80305
C         47.68220        37.22536        -1.07712
C         46.49468        37.76778        -0.39018
C         47.63273        39.94191        -0.16437
C         46.46535        39.19808        -0.06397
C         47.65165        41.33837         0.20417
C         46.39982        42.01352         0.44763
C         47.65360        44.15932         0.67770
C         46.40673        43.46568         0.57668
C         47.67173        45.59895         0.84135
C         46.43114        46.31662         0.77255
C         47.64513        48.45057         0.89843
C         46.41565        47.74436         0.82252
C         47.66224        49.87950         0.92979
C         46.40577        50.58427         0.85710
C         47.62399        52.79798         1.14068
C         46.44837        52.04836         0.63229
C         47.66996        54.25362         0.95922
C         46.44182        54.96008         0.77957
C         47.69437        57.07381         1.05514
C         46.44554        56.37768         0.91378
C         47.68152        58.52931         1.04733
C         46.48490        59.21734         1.09354
C         47.74923        61.43191         0.95123
C         46.43897        60.66824         0.91278
C         47.72460        62.85851         1.29721
C         46.45777        63.56339         1.25278
C         47.65884        65.67301         1.91122
C         46.43998        64.94569         1.38838
C         47.66490        67.15139         1.58755
C         46.45027        67.85514         1.49622
C         47.66721        70.03757         1.48021
C         46.45090        69.31361         1.49862
C         47.63703        71.45778         1.34070
C         46.42523        72.13148         1.15438
C         47.63413        74.25362         0.74010
C         46.40921        73.56658         0.89720
C         48.84811        38.00420        -1.12026
C         50.07076        40.06805        -0.59173
C         48.87040        39.32861        -0.62961
C         50.11197        41.40251        -0.14589
C         48.86149        42.05900         0.20286
C         50.15253        44.09781         0.80582
C         48.86418        43.44054         0.53264
C         50.15772        45.57484         1.11197
C         48.88595        46.31273         0.95452
C         50.10423        48.47771         0.83689
C         48.88773        47.74181         0.92327
C         50.12353        49.88617         0.85015
C         48.89060        50.57507         0.97882
C         50.16675        52.78465         1.15038
C         48.91466        52.02427         1.24632
C         50.12947        54.18131         1.23117
C         48.89650        54.92436         1.13961
C         50.17664        57.07553         1.13137
C         48.90838        56.36637         1.12356
C         50.16924        58.51980         1.08622
C         48.94568        59.24423         1.05959
C         50.18602        61.35370         1.36058
C         48.97328        60.65190         1.14113
C         50.18551        62.79061         1.44093
C         48.95637        63.52343         1.44163
C         50.14995        65.66687         1.51624
C         48.96971        64.97487         1.58270
C         50.20850        67.12301         1.79430
C         48.90351        67.89626         1.80999
C         50.15375        70.02802         1.39868
C         48.92613        69.35081         1.58087
C         50.15686        71.44416         1.19013
C         48.91367        72.23482         1.52603
C         50.08002        74.25401         0.60989
C         48.87681        73.60920         0.89480
C         51.32964        42.12765        -0.11389
C         52.58924        44.21440         0.24329
C         51.40245        43.46012         0.32574
C         52.66235        45.60232         0.50872
C         51.48084        46.33904         1.12009
C         52.61597        48.50123         0.35590
C         51.34654        47.73518         0.55353
C         52.60247        49.95676         0.57867
C         51.37868        50.63870         0.78746
C         52.63111        52.78865         0.88911
C         51.38643        52.05401         0.95723
C         52.64752        54.17636         1.08742
C         51.40826        54.91326         1.53715
C         52.63740        57.07353         0.97471
C         51.38819        56.38310         1.18134
C         52.64765        58.53126         0.96132
C         51.39174        59.23976         1.16092
C         52.69968        61.29976         1.73774
C         51.39708        60.62954         1.37055
C         52.65103        62.81220         1.63975
C         51.44738        63.47687         1.50776
C         52.70739        65.70231         1.37023
C         51.42755        64.94374         1.29893
C         52.65859        67.17864         1.50516
C         51.46831        67.87122         1.54751
C         52.57284        69.99851         0.98357
C         51.41102        69.31091         1.35530
C         52.56054        71.39836         0.69949
C         51.33363        72.12217         0.85145
C         52.52569        74.21798         0.34471
C         51.32741        73.55984         0.62290
C         53.84259        46.32754         0.32082
C         55.07877        48.47579         0.37732
C         53.89993        47.75748         0.40381
C         55.10985        49.91893         0.45811
C         53.83900        50.66017         0.57177
C         55.11713        52.77910         0.31455
C         53.84577        52.05582         0.66256
C         55.15333        54.23821         0.69144
C         53.94472        54.92112         1.28163
C         55.03617        57.04109         0.37899
C         53.83163        56.36724         0.84386
C         55.03302        58.58753         0.35363
C         53.81553        59.25172         0.80496
C         55.19047        61.36482         1.12444
C         53.82152        60.76252         0.83474
C         55.25081        62.75931         1.61475
C         53.94487        63.51675         1.82597
C         55.21262        65.69365         1.25653
C         53.98016        65.05032         1.89895
C         55.16370        67.06750         0.99658
C         53.94888        67.85714         1.34242
C         54.94028        69.86186         0.05772
C         53.88193        69.31663         0.98529
C         54.98464        71.37160         0.13092
C         53.76463        72.08336         0.36871
C         54.95833        74.18512        -0.08506
C         53.75846        73.51326         0.22241
C         56.30811        50.58698         0.51916
C         57.58369        52.78079         0.31262
C         56.36799        52.05983         0.82601
C         57.58385        54.18481         0.24834
C         56.32853        54.91827         0.51185
C         57.50518        57.09610         0.25597
C         56.34779        56.37208         0.45365
C         57.50444        58.54888         0.20837
C         56.32141        59.28177         0.41685
C         57.61127        61.39424         0.61139
C         56.34528        60.69053         0.72728
C         57.67094        62.78909         0.79994
C         56.58022        63.53211         1.55016
C         57.60946        65.67817         0.77331
C         56.44246        64.98747         1.10857
C         57.57531        67.08461         0.49894
C         56.32891        67.77844         0.57183
C         57.42696        69.85194        -0.12913
C         56.27607        69.17375         0.23454
C         57.35867        71.27110        -0.65542
C         56.14477        72.04376        -0.19575
C         57.37074        74.15485        -0.63198
C         56.16430        73.48125        -0.28392
C         58.75652        54.91326         0.04492
C         59.86357        57.08002        -0.61009
C         58.84555        56.39027         0.30029
C         59.93231        58.56134        -0.32165
C         58.74495        59.25724         0.04456
C         60.00631        61.38317         0.03590
C         58.77886        60.67938         0.20692
C         60.03902        62.78622         0.19150
C         58.86895        63.48129         0.54717
C         59.92460        65.63659        -0.15787
C         58.95314        64.96663         0.82762
C         60.10050        67.12431         0.16538
C         58.75718        67.81932         0.15908
C         59.86925        69.90411        -0.63299
C         58.68914        69.18138        -0.13589
C         59.83774        71.25984        -0.81766
C         58.64473        72.03264        -0.31082
C         59.77088        74.13432        -1.15419
C         58.59230        73.47727        -0.77016
C         61.12760        59.24572        -0.48257
C         62.41301        61.34134        -0.53353
C         61.21030        60.65442        -0.30286
C         62.49481        62.75140        -0.44555
C         61.36841        63.51499         0.21038
C         62.32195        65.57824        -0.85601
C         61.25590        64.93266        -0.29583
C         62.26012        67.01158        -1.16171
C         61.11838        67.76758        -0.75663
C         62.19793        69.81887        -1.53361
C         61.05023        69.13473        -1.01650
C         62.19709        71.23333        -1.66789
C         60.87147        71.94602        -1.67383
C         62.15814        74.08464        -1.74659
C         60.97026        73.43548        -1.45749
C         63.60152        63.43883        -0.91679
C         64.62911        65.49906        -1.74450
C         63.57442        64.86091        -1.13909
C         64.48724        66.86621        -2.35176
C         63.35377        67.65697        -1.74903
C         64.57713        69.77619        -2.16065
C         63.37393        69.07708        -1.84008
C         64.59572        71.17499        -2.10278
C         63.39156        71.91922        -1.90991
C         64.52735        74.06638        -2.38333
C         63.38617        73.38097        -2.01895
C         65.77122        67.63915        -2.43786
C         67.00552        69.73677        -2.72852
C         65.80310        69.01978        -2.42577
C         67.05433        71.13693        -2.72948
C         65.87998        71.88346        -2.23469
C         66.97537        74.00025        -3.14114
C         65.84068        73.41183        -2.43542
C         68.17982        71.86657        -3.16378
C         68.11268        73.26049        -3.38853
O         49.58864        67.46988         3.08987
O         50.17032        44.59524         2.20842
O         54.67549        62.92469         2.98853
O         40.29067        44.27954        -2.00279
O         46.03948        36.86346         0.69115
O         48.10427        52.36122         2.44724
O         26.72052        67.59993         1.45184
O         51.81135        47.99451        -0.80151
O         38.60943        61.30242        -1.19597
O         26.75354        72.04296         0.43269
O         52.19958        65.28650         0.06358
O         43.55486        46.08284        -1.06479
O         47.08547        61.12513        -0.33821
O         46.10077        52.40021        -0.74700
O         54.84812        57.79329        -0.86982
O         42.62482        40.48790         1.59332
O         66.19134        72.78529        -1.13752
O         29.75625        65.43241         1.90714
O         54.28844        68.91369         2.32095
O         33.44712        65.51181        -1.27132
O         47.25593        32.98748        -1.90927
H         46.87109        32.83929        -1.02110
O         35.20899        48.15344        -1.66793
H         35.94466        48.62150        -2.11313
O         40.49355        42.94328        -2.50193
H         41.47914        42.86175        -2.53703
O         34.29570        60.79688        -2.04826
H         34.36610        61.74375        -2.29612
O         39.36624        65.11794        -0.95035
H         38.82365        64.44186        -1.41260
O         59.37885        56.52937         1.65647
H         58.74143        56.11284         2.27437
O         44.00010        63.58833        -0.74829
H         44.38850        62.73897        -1.05202
O         39.95325        62.50794         2.70709
H         40.17321        63.35883         3.16422
O         45.27705        39.40730         1.98983
H         45.88995        38.64017         2.05906
O         41.29476        64.85324         3.05715
H         41.50652        65.73533         3.43524
O         33.82883        59.30842         1.28248
H         33.81165        58.38544         1.61207
O         39.95078        70.14009         2.97479
H         40.13362        69.27285         3.39580
O         23.99331        72.25440        -0.62129
H         23.14802        72.73774        -0.72698
O         37.93732        70.01945        -0.91566
H         37.97742        69.09264        -1.23684
O         32.97845        58.55403        -2.25308
H         33.26584        59.45445        -2.54158
O         40.96023        47.85601         1.90337
H         41.59827        47.33548         2.43470
O         48.99947        72.48264         2.98026
H         49.83450        72.97158         3.14205
O         43.68729        43.30192         2.20784
H         43.33265        42.40511         2.39820
O         57.12048        63.60717         2.91382
H         56.36457        63.45942         3.53091
O         59.26999        65.54025        -1.45217
H         59.83650        65.99128        -2.11315
O         36.68319        56.33769        -2.29954
H         36.38192        57.20822        -2.64050
O         37.57719        66.97698         2.66056
H         37.38917        67.87230         3.01732
O         43.66129        50.80874         2.36570
H         43.63497        49.90224         2.74119
O         47.54643        65.62879         3.37926
H         48.28659        66.18876         3.72481
O         51.81783        46.56149         2.51843
H         51.55569        45.74216         2.99990
O         43.99154        67.83531         3.42333
H         44.79756        68.31640         3.71114
O         52.95649        60.90040         3.10625
H         53.67020        61.48930         3.45320
O         58.71472        72.06194         1.14192
H         59.47493        72.62414         1.39848
O         60.34797        71.81495        -3.05115
H         60.25265        70.85598        -3.23617
O         31.46541        73.97336         1.90760
H         30.57157        73.68741         2.19628
O         42.51072        61.25209         2.77550
H         41.61616        61.61747         2.99969
O         39.41598        56.40519        -2.00542
H         38.55162        56.18483        -2.43671
O         43.94801        42.24476        -1.31922
H         44.69470        42.84098        -1.54398
O         26.42217        71.00909        -3.06749
H         25.77495        70.51738        -3.61681
O         56.37189        52.19604         2.28335
H         57.14905        51.71139         2.63132
O         43.53354        37.22508         1.25652
H         44.05720        37.78992         1.87148
O         54.48854        69.53082        -1.29243
H         55.16068        69.88423        -1.91670
O         41.86185        50.69206        -1.62815
H         41.70458        49.77223        -1.96152
O         43.10992        58.30919        -1.03146
H         42.98004        59.15244        -1.51320
O         51.48815        54.91939         3.04060
H         51.21583        54.02631         3.34668
O         45.04015        58.47561         2.84133
H         44.11448        58.17400         3.01963
O         36.52560        72.46762         2.63105
H         35.59063        72.69044         2.87190
O         54.19818        54.96657         2.73132
H         53.31724        55.11347         3.16336
O         59.45335        56.87523        -1.96663
H         60.00194        57.44015        -2.54754
O         40.59272        48.27958        -1.71531
H         39.78812        48.46452        -2.24346
O         53.99620        65.41770         3.29900
H         54.56925        64.77188         3.76892
O         55.21541        52.72210        -1.14264
H         54.43325        53.17441        -1.52235
O         45.39796        65.90094        -0.50938
H         44.97717        65.10559        -0.92850
O         42.47101        57.29403         2.41731
H         42.34430        56.40586         2.81275
O         33.82118        72.52653         2.45269
H         33.01998        73.11326         2.50490
O         30.02761        67.09800        -1.31696
H         30.85231        66.80674        -1.76171
O         59.45355        65.08878         2.18496
H         58.79125        64.63825         2.76448
O         28.97608        62.96691         2.11888
H         29.46009        63.64717         2.64247
O         64.09305        66.61256        -3.76500
H         63.30595        66.02730        -3.74223
O         60.66988        67.23759         1.49343
H         60.71242        68.18869         1.72372
O         61.73883        63.62828         1.62318
H         61.06255        64.21958         2.04891
O         29.32037        67.96577         2.16398
H         28.44385        68.05291         2.60030
O         36.25093        47.98567         1.83735
H         37.04223        47.63645         2.29905
O         57.25515        71.15585        -2.10553
H         57.43033        72.04315        -2.48765
O         53.50227        61.20618        -0.52032
H         54.04147        60.68023        -1.14880
H         23.86680        74.84184        -3.86794
H         26.08373        74.99924        -2.79878
H         28.28355        75.18354        -1.58480
H         30.49130        75.30932        -0.54560
H         32.94654        75.19057        -0.44090
H         35.39657        75.14840        -0.31918
H         37.81852        75.21969        -0.03223
H         40.28007        75.29384         0.36321
H         42.72504        75.28475         0.43860
H         45.16886        75.29936         0.51218
H         47.61551        75.30897         0.42643
H         50.06622        75.30582         0.28485
H         52.51813        75.30641         0.18349
H         54.95084        75.28057        -0.18745
H         57.33422        75.23876        -0.82174
H         59.75570        75.23050        -1.26550
H         62.19461        75.18419        -1.69939
H         64.47313        75.14861        -2.57774
H         66.89990        75.03831        -3.49628
H         22.65853        69.10159        -2.74689
H         21.68275        71.11457        -3.85406
H         21.88050        73.50286        -4.48018
H         24.66524        65.05487        -0.91053
H         23.58014        67.12300        -1.69054
H         26.98082        60.83786        -0.45631
H         25.81749        63.00005        -0.58485
H         29.46236        56.58431        -0.30437
H         28.20962        58.70028        -0.28158
H         31.93112        52.31137        -0.17125
H         30.70999        54.43141        -0.19971
H         34.31190        48.06510         0.18503
H         33.13599        50.17005        -0.20628
H         36.83368        43.63815         0.12807
H         35.58033        45.75711         0.20082
H         39.29035        39.41551        -0.46526
H         38.02957        41.52077        -0.05081
H         41.80263        35.54513        -2.05533
H         40.57183        37.50912        -1.31386
H         45.05295        32.40456        -3.38612
H         42.96414        33.58335        -2.84494
H         46.94861        34.14858        -3.57607
H         48.53461        35.47952        -2.03325
H         49.76724        37.57379        -1.54516
H         51.00477        39.58026        -0.90855
H         52.24769        41.63186        -0.46406
H         53.49146        43.71448        -0.14343
H         54.76744        45.78405         0.06984
H         56.04074        47.94101         0.35327
H         57.24940        50.01432         0.49237
H         58.52072        52.22893         0.13566
H         59.70476        54.36884        -0.08949
H         60.88038        56.61775        -0.44874
H         62.03827        58.69232        -0.76000
H         63.28946        60.77796        -0.89019
H         64.46939        62.87331        -1.29143
H         65.53985        64.92701        -1.98155
H         66.69367        67.07862        -2.65464
H         67.90203        69.16603        -3.01472
H         69.08840        71.32103        -3.45659
H         68.97584        73.75222        -3.86037
