         620
 CSIRO Nanostructure Databank - Neutral Graphene Oxide Data Set
C         23.04198        27.49643        -0.22616
C         23.04766        28.85524        -0.01287
C         23.04225        31.77959         0.16261
C         23.03378        33.14658         0.39401
C         22.98187        36.05671         0.60767
C         22.93002        37.40425         0.72509
C         23.14098        40.12301        -0.20966
C         23.18638        41.43785        -0.67707
C         24.21535        44.87123        -2.86570
C         24.58270        46.10029        -3.36253
C         25.40888        24.76198        -1.15587
C         24.24136        25.41237        -0.82679
C         25.44367        27.55385        -0.75100
C         24.23210        26.81483        -0.59988
C         25.42115        28.96271        -0.56740
C         24.23687        29.62382        -0.19717
C         25.49705        31.77306         0.13965
C         24.24276        31.06314         0.01858
C         25.49411        33.18735         0.50308
C         24.23264        33.89018         0.55655
C         25.43032        36.02727         0.94895
C         24.20783        35.30204         0.72195
C         25.40180        37.42179         1.00188
C         24.13768        38.21888         1.08057
C         25.51631        40.27378         0.35296
C         24.27622        39.54646         0.33897
C         25.59239        41.63450        -0.12233
C         24.35619        42.18630        -0.58837
C         26.27280        44.21342        -1.59456
C         24.91567        44.16275        -1.82541
C         26.71538        46.19877        -2.13595
C         25.64992        46.86563        -2.76610
C         26.43183        48.89849        -1.69798
C         25.55759        48.27018        -2.56453
C         27.93413        23.34692        -1.68930
C         27.89493        24.73527        -1.47816
C         26.64899        25.46014        -1.25477
C         27.90782        27.60713        -1.11574
C         26.66087        26.85786        -1.05973
C         27.91242        28.98065        -0.93788
C         26.63320        29.78533        -0.90137
C         27.98716        31.77887         0.02737
C         26.68823        31.09763        -0.12681
C         28.00068        33.21104         0.54854
C         26.68986        33.88757         0.74155
C         27.89720        35.99979         1.22814
C         26.68640        35.29651         1.01173
C         27.89004        37.44244         1.51241
C         26.59786        38.21284         1.30505
C         27.91722        40.30148         0.96670
C         26.68209        39.62770         0.88846
C         27.98312        41.68251         0.56851
C         26.86122        42.35784        -0.00401
C         28.22237        44.48049        -0.11039
C         27.08392        43.68642        -0.51773
C         28.33175        45.94349        -0.25260
C         27.48621        46.75445        -1.08485
C         28.27175        48.84865        -0.01594
C         27.37638        48.17541        -0.91607
C         28.18539        50.23888         0.26402
C         30.37857        23.28257        -1.64681
C         29.13818        22.64234        -1.79299
C         30.37267        24.70955        -1.46670
C         29.13672        25.44865        -1.42590
C         30.39050        27.56231        -1.22230
C         29.14680        26.86412        -1.29333
C         30.42873        28.95697        -0.98960
C         29.17952        29.79334        -1.06532
C         30.33095        31.13691         0.67556
C         29.18323        30.88913        -0.02035
C         30.33996        33.26378         1.58561
C         29.18946        33.90452         1.14264
C         30.35961        36.05166         1.54417
C         29.15545        35.32986         1.25548
C         30.34425        37.46763         1.63185
C         29.15043        38.19783         1.48846
C         30.35717        40.34527         1.48004
C         29.12791        39.61605         1.37786
C         30.40582        41.69789         1.17081
C         29.21695        42.38637         0.74061
C         30.30421        44.49339         1.37497
C         29.24437        43.79166         0.58372
C         30.32584        45.97098         1.21236
C         29.30595        46.66400         0.53058
C         30.31102        48.79302         1.37306
C         29.30729        48.10402         0.60709
C         30.38473        50.23991         1.35692
C         29.20940        50.90449         0.90723
C         33.01127        20.60821        -2.34070
C         31.75892        21.28876        -2.25801
C         32.85523        23.17517        -1.12640
C         31.63442        22.53803        -1.68660
C         32.84246        24.67175        -1.06727
C         31.58964        25.40869        -1.30399
C         32.84873        27.47082        -0.90179
C         31.61123        26.80610        -1.16279
C         32.88092        28.86109        -0.81470
C         31.65285        29.59118        -0.66530
C         32.80880        31.27991         0.79650
C         31.63145        30.71274         0.22428
C         32.81843        33.23689         1.87262
C         31.58747        33.93970         1.78360
C         32.85809        36.02751         1.82720
C         31.60718        35.35748         1.69916
C         32.87056        37.45312         1.94874
C         31.58252        38.15948         2.00993
C         32.90439        40.34638         1.89578
C         31.58827        39.67578         1.96007
C         32.93827        41.74475         1.70792
C         31.70988        42.40297         1.21991
C         32.79391        44.60522         1.92940
C         31.69057        43.89757         1.23900
C         32.44980        45.84215         2.46103
C         31.32251        46.62020         1.97133
C         33.09816        49.14239         2.37085
C         31.21940        48.01863         2.12602
C         32.92927        50.39894         1.69460
C         31.62652        50.98941         1.47930
C         32.77312        53.01779         0.66745
C         31.63054        52.35506         1.06954
C         35.54355        19.10376        -2.30133
C         35.47088        20.46627        -1.97150
C         34.19047        21.12871        -1.85434
C         35.36555        23.27716        -1.75409
C         34.21465        22.45125        -1.11730
C         35.38926        24.74688        -1.36920
C         34.11476        25.41650        -1.03535
C         35.29787        27.44212        -0.14952
C         34.10081        26.76208        -0.79457
C         35.31798        28.94402        -0.28588
C         34.15418        29.52174        -0.74547
C         35.30441        31.84364         0.76104
C         34.06011        31.36453         0.20238
C         35.31196        33.14529         1.37821
C         34.07198        33.85319         1.67340
C         35.33005        35.95529         1.92333
C         34.08765        35.28605         1.78933
C         35.30236        37.38494         2.29015
C         34.05931        38.16271         2.11556
C         35.34543        40.31073         2.13290
C         34.09238        39.60106         2.11014
C         35.34735        41.74892         2.10077
C         34.12191        42.49430         1.94076
C         35.29059        44.67395         2.28940
C         34.08615        43.95048         2.07208
C         35.40427        46.12002         2.31191
C         34.33096        46.97066         2.65665
C         35.48234        49.00291         1.83690
C         34.25074        48.34892         2.29511
C         35.40744        50.41007         1.28905
C         34.08349        51.05550         1.17549
C         35.21014        52.94336         0.01191
C         34.02133        52.34718         0.61377
C         35.26332        54.27744        -0.40049
C         37.96601        19.07865        -1.99220
C         36.75745        18.43027        -2.32100
C         37.94513        20.47055        -1.67297
C         36.69885        21.18053        -1.69631
C         37.89001        23.27683        -1.16917
C         36.69204        22.57874        -1.49847
C         37.90733        24.68719        -0.92574
C         36.66545        25.46353        -1.06020
C         37.79051        27.54601        -0.30674
C         36.62245        26.82967        -0.49927
C         37.72274        28.97326         0.00641
C         36.51485        29.70044         0.04457
C         37.74682        31.78209         0.75428
C         36.50501        31.11767         0.46300
C         37.77077        33.16003         1.16803
C         36.54684        33.85098         1.46304
C         37.81151        35.97620         1.81612
C         36.55809        35.25928         1.78441
C         37.84466        37.38950         2.01103
C         36.61372        38.13871         2.33372
C         37.80863        40.30034         2.11002
C         36.57930        39.60974         2.17759
C         37.81849        41.73599         2.15236
C         36.58155        42.43583         2.20177
C         37.88718        44.62615         2.20524
C         36.55403        43.89888         2.39590
C         37.84753        46.05539         1.86521
C         36.66444        46.77930         1.94037
C         37.78180        48.82754         1.03726
C         36.67060        48.18317         1.57867
C         37.71650        50.10698         0.36212
C         36.49685        50.86956         0.40208
C         37.44136        52.61988        -1.07975
C         36.36704        52.11517        -0.20998
C         37.49235        54.05285        -1.40431
C         36.40330        54.83084        -1.02527
C         40.47194        16.29350        -2.30359
C         39.27896        16.98283        -2.31223
C         40.41639        19.05041        -1.63560
C         39.22063        18.36289        -1.98243
C         40.39548        20.44523        -1.29939
C         39.15091        21.15942        -1.34168
C         40.31729        23.23916        -0.63859
C         39.12553        22.55480        -1.05377
C         40.26674        24.60891        -0.31631
C         39.06726        25.35597        -0.49870
C         40.26003        27.47673        -0.08715
C         39.05923        26.81274        -0.31314
C         40.28833        28.95350        -0.09767
C         38.97530        29.73525        -0.00291
C         40.21900        31.77432         0.67039
C         38.98630        31.11529         0.51139
C         40.25292        33.17772         1.01555
C         39.01821        33.86264         1.25773
C         40.27358        35.97668         1.59946
C         39.03324        35.26767         1.56301
C         40.28785        37.38927         1.82095
C         39.05262        38.11372         1.96925
C         40.26250        40.26613         2.11276
C         39.04525        39.55932         2.07193
C         40.30277        41.68777         2.04742
C         39.07976        42.42992         2.05963
C         40.29369        44.51177         1.54766
C         39.10616        43.84854         1.90705
C         40.33066        45.94253         1.34655
C         39.12532        46.73642         1.65702
C         40.25383        48.76473         0.50211
C         39.09201        48.20031         1.18559
C         40.15129        49.96738        -0.18595
C         38.86665        50.61856        -0.28063
C         39.98536        52.52350        -1.54558
C         38.75883        51.82429        -1.10675
C         39.88436        53.85047        -2.12223
C         38.67220        54.58912        -2.06151
C         39.75992        56.50070        -3.14032
C         38.63998        55.90859        -2.60537
C         42.91411        16.24864        -1.95130
C         41.67786        16.95300        -1.96105
C         42.86531        19.00720        -1.28209
C         41.65327        18.33699        -1.62464
C         42.83980        20.40014        -0.93913
C         41.59577        21.11645        -0.93703
C         42.77375        23.16150        -0.21190
C         41.57587        22.50772        -0.57257
C         42.76835        24.57697         0.12850
C         41.43689        25.26779         0.36780
C         42.65982        27.44176         0.46202
C         41.48889        26.76817         0.17383
C         42.72380        28.89167         0.45210
C         41.50896        29.65853         0.29803
C         42.70212        31.79657         0.45825
C         41.44902        31.04059         0.50371
C         42.73995        33.20495         0.88087
C         41.49512        33.87657         1.12302
C         42.75265        35.98485         1.47572
C         41.51549        35.28122         1.41425
C         42.75370        37.38785         1.74975
C         41.52600        38.06762         1.94002
C         42.83123        40.26658         2.21340
C         41.51326        39.50308         2.26627
C         42.79859        41.70398         1.90173
C         41.56082        42.38116         1.88566
C         42.72422        44.45684         1.26054
C         41.53736        43.78223         1.53555
C         42.67698        45.79225         0.65000
C         41.47692        46.59467         0.93244
C         42.75040        48.65860        -0.03122
C         41.52398        48.04631         0.67234
C         42.55911        49.92227        -0.76424
C         41.33028        50.56166        -0.82385
C         42.34014        52.39294        -2.24394
C         41.19355        51.85154        -1.48412
C         42.31172        53.79028        -2.69720
C         41.06487        54.47725        -2.65851
C         42.18756        56.41601        -3.65676
C         41.00418        55.81064        -3.15645
C         44.07850        16.89313        -1.61808
C         45.30451        18.94974        -0.92347
C         44.08693        18.27843        -1.27495
C         45.28339        20.33824        -0.59973
C         44.04871        21.06330        -0.60338
C         45.22772        23.08015         0.18644
C         44.03010        22.44903        -0.21757
C         45.14301        24.42589         0.86944
C         43.92252        25.23212         0.46933
C         45.17043        27.41640         0.82867
C         43.85726        26.66213         0.97715
C         45.17896        28.78999         0.81296
C         43.94801        29.53777         0.64695
C         45.23486        31.74262         0.71011
C         43.99911        30.99572         0.45802
C         45.21369        33.10988         0.82048
C         43.97533        33.85670         0.98983
C         45.22317        35.96285         1.35118
C         44.01375        35.28120         1.27571
C         45.26603        37.45946         1.29469
C         43.99277        38.13554         1.73284
C         45.29465        40.24105         1.74641
C         44.04164        39.50565         1.87526
C         45.27120        41.68253         1.60863
C         44.03949        42.36845         1.65501
C         45.31631        44.52961         0.94288
C         44.01289        43.82217         1.47468
C         45.22691        45.77552         0.18737
C         43.92223        46.43603         0.10559
C         44.99951        48.26210        -1.18530
C         43.91279        47.82573        -0.30731
C         44.93737        49.67876        -1.69071
C         43.84250        50.60017        -1.17440
C         44.89481        52.41451        -2.56653
C         43.65918        51.69686        -2.18964
C         44.79774        53.73572        -3.05175
C         43.49501        54.41592        -3.14022
C         43.39411        55.74874        -3.63264
C         47.71137        18.89763        -0.55991
C         46.54200        18.25298        -0.87962
C         47.72901        20.28842        -0.26349
C         46.50136        21.00585        -0.27109
C         47.70418        23.03919         0.42329
C         46.47801        22.39095         0.11261
C         47.68078        24.42877         0.91329
C         46.43165        25.18875         0.87544
C         47.69768        27.38795         1.04860
C         46.45451        26.65380         0.56356
C         47.73157        28.83635         0.83063
C         46.44806        29.58605         1.09223
C         47.75412        31.69094         0.79620
C         46.48623        30.95977         0.42361
C         47.76831        33.08470         0.91334
C         46.50595        33.83545         0.75736
C         47.79139        35.91796         1.46956
C         46.51200        35.30466         1.05016
C         47.78938        37.32816         1.93651
C         46.48690        38.08691         1.94922
C         47.75948        40.31277         1.86664
C         46.49526        39.56489         1.86138
C         47.73852        41.65422         1.27094
C         46.49692        42.35449         1.23207
C         47.61949        44.24436         0.09823
C         46.48908        43.68945         0.75585
C         47.57467        45.55516        -0.49186
C         46.35213        46.30557        -0.46571
C         47.44665        48.17655        -1.71774
C         46.30176        47.57018        -1.16349
C         47.36504        49.56034        -2.17983
C         46.20174        50.32522        -2.08880
C         47.32930        52.41725        -2.83004
C         46.14055        51.72865        -2.47230
C         47.23015        53.76121        -3.26773
C         46.00684        54.39501        -3.39208
C         50.20996        20.29316        -0.08273
C         48.96563        20.97398        -0.00556
C         50.21353        23.08177         0.34185
C         48.95370        22.37056         0.29039
C         50.24407        24.50159         0.49474
C         49.02658        25.16456         0.98972
C         50.23670        27.39953         0.70134
C         49.02189        26.65954         1.09305
C         50.19813        28.80059         0.63618
C         48.94028        29.50925         0.77517
C         50.19229        31.65136         0.89556
C         48.95530        30.95902         0.83154
C         50.19926        33.05305         1.13626
C         48.98899        33.77857         1.15090
C         50.24201        35.91449         1.74336
C         48.96575        35.20858         1.43521
C         50.24982        37.39398         1.60087
C         49.06460        38.06845         1.79957
C         50.24242        40.19058         1.20034
C         49.07927        39.53684         1.81189
C         50.17237        41.50412         0.72795
C         48.91298        42.21915         0.72715
C         49.87256        43.90883        -0.79560
C         48.81635        43.47903         0.05861
C         49.70912        45.12676        -1.51165
C         48.68547        46.06002        -1.23323
C         49.94475        48.12515        -1.94325
C         48.72476        47.45075        -1.70595
C         49.93793        49.53284        -2.41781
C         48.58555        50.24535        -2.65146
C         49.81194        52.36982        -2.88975
C         48.59267        51.71459        -2.77755
C         51.40473        20.96907         0.00488
C         52.67764        23.11056         0.05868
C         51.43597        22.38182         0.14895
C         52.65829        24.53338         0.03210
C         51.42541        25.24037         0.27750
C         52.57810        27.42443        -0.03335
C         51.42442        26.69090         0.33977
C         52.60306        28.84633        -0.01616
C         51.39474        29.54976         0.35234
C         52.56609        31.73905         0.17491
C         51.38830        30.94358         0.53762
C         52.73599        33.06650         0.82150
C         51.50030        33.71401         1.37530
C         52.79087        35.91978         1.34187
C         51.54506        35.17887         1.65616
C         52.80018        37.38209         1.76359
C         51.50038        38.09763         1.42319
C         52.70471        40.28756         1.07028
C         51.47232        39.45536         1.13740
C         52.64895        41.56668         0.31093
C         51.33514        42.07448         0.05358
C         52.88741        44.19695        -1.25869
C         51.04775        43.11033        -0.86484
C         52.73848        45.60248        -1.39051
C         51.55231        46.21013        -1.88655
C         52.41019        48.43403        -1.45172
C         51.27691        47.57768        -1.74639
C         52.31194        49.83996        -1.62239
C         51.10910        50.39745        -2.20822
C         51.03286        51.73453        -2.58307
C         55.10233        23.16106        -0.22656
C         53.92753        22.45343        -0.07691
C         55.10659        24.57834        -0.31440
C         53.86552        25.24318        -0.21660
C         55.09067        27.46445        -0.60304
C         53.78226        26.69257        -0.45836
C         55.07025        28.91510        -0.36782
C         53.82804        29.56181        -0.24066
C         55.10468        31.77300        -0.15137
C         53.83285        31.03079        -0.23556
C         55.08906        33.21705         0.04680
C         53.93961        33.87007         0.50503
C         55.09868        36.09387         0.48892
C         53.89709        35.28794         0.81731
C         55.17435        37.49431         0.96684
C         54.04376        38.14422         1.34504
C         55.30492        40.41260         1.19115
C         54.01615        39.63013         1.40643
C         55.13411        41.70576         0.42498
C         53.88387        42.25423         0.02784
C         55.07332        44.43848        -0.29944
C         53.92332        43.60916        -0.51459
C         55.00480        45.84855        -0.50976
C         53.79129        46.44704        -0.93188
C         54.79377        48.68963        -0.76554
C         53.66127        47.86502        -1.04805
C         54.62696        50.09228        -0.86674
C         53.42865        50.64472        -1.28613
C         57.62006        24.66734        -0.32097
C         56.36384        25.32808        -0.39730
C         57.56295        27.49382        -0.38035
C         56.35840        26.73886        -0.45064
C         57.54844        28.93464        -0.41476
C         56.29974        29.63696        -0.39296
C         57.53689        31.81682        -0.73188
C         56.28932        31.07533        -0.32812
C         57.54016        33.27229        -0.32056
C         56.35311        33.92889        -0.08011
C         57.64518        36.12623         0.11740
C         56.34550        35.40748         0.03096
C         57.70601        37.44037         0.50542
C         56.52508        38.17681         1.09008
C         57.67003        40.32655         0.44852
C         56.47670        39.61890         0.67158
C         57.62268        41.77020         0.35612
C         56.34967        42.42502         0.25247
C         57.50642        44.61312         0.07912
C         56.31339        43.82812         0.01372
C         57.41521        46.03619        -0.03364
C         56.16134        46.66540        -0.30530
C         57.25370        48.84618        -0.24480
C         56.06594        48.07982        -0.42954
C         58.80215        25.38022        -0.27498
C         60.02013        27.53750        -0.21487
C         58.80157        26.79604        -0.28969
C         60.01081        28.90673        -0.24843
C         58.79199        29.65325        -0.36957
C         60.00106        31.83646        -0.44994
C         58.81640        31.07535        -0.44435
C         59.99580        33.22511        -0.51152
C         58.80063        33.99414        -0.40543
C         60.03752        36.17356        -0.49098
C         58.83907        35.39873        -0.26170
C         60.11564        37.48151        -0.15446
C         59.03524        38.15298         0.64905
C         60.09748        40.43047         0.34598
C         58.93613        39.65585         0.39852
C         60.05394        41.82728         0.30238
C         58.82492        42.52655         0.30332
C         59.92072        44.80027         0.36829
C         58.76583        43.97990         0.25590
C         59.83461        46.17872         0.31100
C         58.58766        46.82897         0.09959
C         58.46991        48.24579         0.00520
O         39.38171        47.83310         2.58453
O         43.40414        31.49132        -0.80080
O         55.42986        36.02635        -0.95972
O         36.09213        25.49017        -2.45335
O         32.64619        23.81955         0.17191
O         52.92258        31.66509        -1.23410
O         37.36249        44.33116         3.54509
O         32.73277        31.85200         2.08501
O         39.68076        29.55948        -1.28993
O         50.60734        45.41081        -2.55229
O         44.88597        44.61306         2.34462
O         44.49787        48.61350        -2.56292
O         35.97409        37.66595         3.57291
O         52.41858        32.96985         2.25382
O         28.17669        32.93128        -0.90625
O         47.00459        37.51506         3.17908
O         33.28179        46.43477         3.42457
O         51.96300        43.35435        -1.89866
O         48.32495        27.06375         2.32549
O         48.59987        40.15941         3.05593
O         42.76708        51.41070        -3.29521
O         35.82305        50.18132         2.67920
O         49.31844        49.60991        -3.74502
O         54.29750        27.07494        -1.78021
O         24.09978        43.52899        -0.89252
O         27.03045        44.90054        -2.57802
O         30.28095        31.90250         1.84903
O         27.07378        37.88722         2.66915
O         34.16827        30.87698        -1.11735
O         48.47881        24.53836         2.18001
O         42.23857        39.87416         3.49374
O         42.93908        45.64524        -0.83545
O         31.99671        48.66295         3.10143
O         50.93493        35.48316         2.97448
O         42.52696        48.79118         1.44955
O         31.97777        43.22537        -0.00389
O         37.76993        51.72327        -2.19026
O         31.40806        38.96731         3.23087
O         53.25941        40.30235         2.46379
O         46.56342        34.80322        -0.35644
O         57.46176        31.85361        -2.20981
H         56.62232        32.30217        -2.45065
O         29.16343        30.43414        -2.40107
H         29.33389        29.73075        -3.06311
O         52.87241        37.38034         3.22035
H         52.13559        36.80395         3.54433
O         41.20530        25.08452         1.81061
H         41.92724        25.58607         2.27194
O         29.96445        44.24771         2.78979
H         29.09453        44.66266         2.97004
O         35.11148        23.23000        -3.18100
H         35.65149        23.94922        -3.58452
O         59.43520        38.02130         2.05551
H         58.60382        38.13146         2.58655
O         45.45127        37.78421        -0.13355
H         44.93105        37.14238        -0.66257
O         35.09715        27.13163         1.28726
H         35.80633        27.58986         1.78724
O         44.35742        51.24387         0.03152
H         44.10844        50.69791         0.80861
O         44.87185        24.09925         2.32321
H         44.17508        23.40650         2.33608
O         56.78300        38.22480         2.55210
H         56.38382        39.07157         2.88782
O         43.61529        26.52271         2.43100
H         44.20419        25.78342         2.74009
O         34.57439        22.17729         0.25017
H         33.98837        22.73296         0.81891
O         55.73951        40.79882         2.55804
H         54.90668        41.01335         3.04670
O         46.42426        29.84212         2.52603
H         46.61606        29.00032         2.99291
O         46.51617        30.72235        -1.00763
H         46.30372        31.56187        -1.46715
O         46.62431        26.71528        -0.91754
H         45.77766        26.43841        -1.32982
O         23.97112        38.57795         2.50384
H         24.86203        38.60680         2.91692
O         26.43715        30.26472        -2.28650
H         27.28858        30.70540        -2.54045
H         22.11436        26.92022        -0.09775
H         22.11791        29.34784         0.30136
H         22.07800        31.26501         0.05777
H         22.06136        33.64974         0.46868
H         22.04586        35.52069         0.39854
H         21.95085        37.90047         0.67447
H         22.18773        39.58196        -0.24438
H         22.27786        41.92510        -1.05284
H         23.23133        44.46884        -3.15096
H         23.89263        46.61558        -4.04808
H         25.37964        23.67597        -1.31489
H         23.30288        24.84796        -0.72878
H         26.36244        49.98792        -1.58074
H         24.77710        48.84499        -3.08232
H         27.00006        22.77424        -1.76467
H         27.31990        50.81739        -0.08525
H         29.09864        21.55375        -1.93893
H         29.10889        51.99113         1.02527
H         33.01846        19.64623        -2.87338
H         30.88407        20.80406        -2.71403
H         32.69016        54.05879         0.32719
H         30.68553        52.90943         1.00949
H         34.62526        18.54051        -2.51583
H         34.41329        54.94446        -0.20260
H         36.75091        17.36262        -2.57402
H         36.39572        55.90914        -1.23573
H         40.49776        15.22541        -2.56228
H         38.36385        16.44077        -2.58197
H         39.70593        57.51971        -3.54949
H         37.69405        56.46679        -2.60385
H         42.92385        15.18131        -2.21446
H         42.13449        57.44023        -4.05321
H         45.01504        16.32146        -1.62124
H         44.28645        56.26331        -4.01270
H         48.63987        18.31382        -0.53912
H         46.58190        17.17988        -1.10403
H         48.13734        54.30888        -3.55636
H         45.99057        55.42844        -3.76255
H         50.23791        19.20893        -0.24832
H         49.83696        53.45118        -3.08123
H         52.33903        20.40150        -0.09126
H         51.93305        52.36271        -2.54533
H         56.04197        22.59931        -0.30555
H         53.98006        21.35739        -0.04662
H         55.46108        50.76575        -0.62827
H         53.35790        51.73749        -1.37021
H         57.66744        23.57115        -0.28972
H         57.21262        49.94133        -0.32175
H         59.76213        24.84760        -0.21508
H         60.97094        26.99134        -0.13431
H         60.96792        29.44173        -0.19322
H         60.97735        31.33428        -0.40358
H         60.96324        33.74456        -0.53962
H         60.88689        35.69756        -1.00229
H         61.03645        38.04093        -0.37447
H         61.08043        39.93943         0.37101
H         61.00238        42.37995         0.26409
H         60.90556        44.33825         0.52236
H         60.74357        46.78866         0.41639
H         59.37153        48.86420         0.12373
