         244
 CSIRO Nanostructure Databank - Neutral Graphene Oxide Data Set
C          1.34509         2.15777        -1.05800
C          1.32721         3.58526        -1.03373
C          2.50787         1.44081        -0.89787
C          2.46200         4.32336        -0.76437
C          1.30382         6.54382        -0.89356
C          1.29772         7.91662        -0.78171
C          2.49352         5.77242        -0.74254
C          2.49116         8.64505        -0.48861
C          1.31992        10.87533        -0.53872
C          1.21306        12.15367        -0.11130
C          2.51263        10.06664        -0.30106
C          2.31200        12.74917         0.68578
C          1.10219        15.05389         0.94804
C          1.15790        16.29175         0.38795
C          2.24143        14.14675         1.26165
C          2.37083        17.02814         0.02716
C          2.44653        17.97877        -1.02906
C          3.75108         2.10937        -0.66185
C          3.71304         3.58544        -0.31118
C          4.95649         1.44264        -0.64230
C          4.96451         4.29029        -0.81322
C          3.71874         6.47061        -0.51911
C          3.70653         7.90986        -0.36837
C          4.94914         5.74969        -0.42483
C          4.90557         8.61002        -0.07342
C          3.69096        10.69852         0.14899
C          3.69944        12.20465         0.32663
C          4.90175         9.97797         0.25295
C          4.80955        12.72675         1.26707
C          3.56248        14.76978         1.54315
C          3.55833        16.77918         0.72193
C          4.78186        14.24083         1.27238
C          4.84325        17.11846         0.25097
C          3.65417        18.58570        -1.33084
C          4.87748        18.16681        -0.72284
C          6.21434         2.12789        -0.44619
C          6.22897         3.54980        -0.43633
C          7.42141         1.41850        -0.28189
C          7.43018         4.25765        -0.24915
C          6.16660         6.39610        -0.19575
C          6.18368         7.87801        -0.16458
C          7.38918         5.67925        -0.15773
C          7.45050         8.59551         0.13143
C          6.11864        10.59621         0.94388
C          6.15018        12.10499         0.96564
C          7.43851        10.01230         0.54518
C          7.32823        12.80467         0.99291
C          6.03656        15.06750         1.27868
C          6.04620        16.45056         0.69224
C          7.34601        14.28755         1.17964
C          7.27147        17.04378         0.35134
C          6.12332        18.77334        -0.99462
C          7.29396        18.28851        -0.39622
C          8.65745         2.08405        -0.09111
C          8.67971         3.53500        -0.06624
C          9.86626         1.37496         0.06770
C          9.88346         4.19916         0.15581
C          8.65265         6.42571        -0.04085
C          8.60818         7.77786         0.62881
C          9.93978         5.66562         0.12081
C          9.90262         8.54010         0.55205
C          8.62601        10.67485         0.72621
C          8.62473        12.12739         0.88478
C          9.89377         9.92755         0.65754
C          9.82044        12.83475         0.84710
C          8.58597        15.01354         0.81915
C          8.53686        16.37444         0.58039
C          9.84527        14.27972         0.75305
C          9.80436        17.19525         0.61743
C          8.52795        18.96270        -0.63512
C          9.75373        18.46617        -0.19965
C         11.10201         2.02758         0.30947
C         11.11293         3.48621         0.40689
C         12.29874         1.30799         0.45350
C         12.27545         4.16154         0.74093
C         11.10268         6.39067         0.65122
C         11.11989         7.77959         0.65899
C         12.30284         5.62445         1.13882
C         12.37720         8.49438         0.78205
C         11.13655        10.62827         0.78851
C         11.12874        12.10671         1.09427
C         12.35056         9.93844         0.79868
C         12.35295        12.77364         0.51721
C         11.04006        14.96707         0.48719
C         11.06098        16.39648         0.33808
C         12.25277        14.19296         0.00933
C         12.22618        17.10684         0.06646
C         10.95330        19.14896        -0.45802
C         12.21466        18.52639        -0.24842
C         13.55020         1.95299         0.69002
C         13.51553         3.41043         0.96568
C         14.75488         1.26881         0.63515
C         14.82066         4.19959         0.89967
C         13.59283         6.35017         0.78824
C         13.57543         7.78834         0.76911
C         14.77971         5.65297         0.61451
C         14.90462         8.49723         0.87784
C         13.61319        10.66064         0.72212
C         13.54293        12.09833         0.49170
C         14.82288         9.98696         0.63007
C         14.85037        12.85490         0.50318
C         13.56410        14.93099         0.18365
C         13.53682        16.44002         0.10927
C         14.77699        14.20532        -0.14573
C         14.72566        17.14455        -0.32866
C         13.41926        19.21623        -0.43894
C         14.68552        18.54497        -0.49994
C         16.05766         1.94144         0.59608
C         16.08218         3.45354         0.61811
C         17.23902         1.23614         0.04177
C         17.02838         4.13412        -0.35235
C         16.00749         6.32815         0.22198
C         15.93416         7.82231        -0.03362
C         17.13243         5.63354        -0.12017
C         17.27677         8.50983         0.04019
C         16.06707        10.67412         0.32441
C         16.07568        12.06626         0.14114
C         17.28323         9.94133         0.13036
C         17.26085        12.74461        -0.23064
C         16.06244        14.99333        -0.17696
C         15.87160        16.34464        -0.90628
C         17.21416        14.16353        -0.77630
C         17.18986        17.12540        -0.92291
C         15.91676        19.25356        -0.61558
C         17.16335        18.58477        -0.63952
C         18.37160         1.91761        -0.31059
C         18.35043         3.39282        -0.50171
C         19.65480         1.25840        -0.45425
C         19.64421         4.14062        -0.46809
C         18.39505         6.34300        -0.56728
C         18.44512         7.80636        -0.17500
C         19.61940         5.59172        -0.00571
C         19.71495         8.48441        -0.22066
C         18.49952        10.64053        -0.09525
C         18.46947        12.04665        -0.29164
C         19.73687         9.90735        -0.21703
C         19.71653        12.76947        -0.74070
C         18.50957        14.91455        -0.56973
C         18.49092        16.38495        -0.72203
C         19.69419        14.25409        -0.42124
C         19.68890        17.13311        -0.31133
C         18.37407        19.24441        -0.41735
C         19.61883        18.55228        -0.23424
C         20.83876         1.94173        -0.40529
C         20.90424         3.37762        -0.30308
C         22.07689         4.09489        -0.20618
C         20.93989         6.29380        -0.25723
C         20.94479         7.74896        -0.30576
C         22.08653         5.52724        -0.25996
C         22.14893         8.47321        -0.39561
C         20.97713        10.61087        -0.31508
C         20.98639        12.06668        -0.33214
C         22.16678         9.86535        -0.39660
C         22.11219        12.81425        -0.07822
C         20.93495        14.97446        -0.17768
C         20.89318        16.43851        -0.04725
C         22.10017        14.24269        -0.03917
C         22.03401        17.19136         0.30178
C         20.79252        19.26768         0.10866
C         21.97628        18.58710         0.37234
O         19.00974         3.82102        -1.74885
O         14.22908         3.83807         2.18730
O         13.70990        15.70934         1.45607
O          7.06480         8.40500        -1.26637
O          6.83350        14.79795         2.47749
O          9.52448         6.27378        -1.18794
O          1.95261        12.96808         2.08285
O         16.56329         2.74656         1.77469
O         18.00820        16.78694        -2.08125
O          3.47771        16.10707         1.94476
O          4.01614        12.77486        -0.97697
H          3.45805        12.32805        -1.64812
O         19.66313        12.71951        -2.22312
H         20.47052        13.16676        -2.55694
O         15.02534        13.12737         1.95458
H         14.40524        13.85413         2.19331
O          4.89876         4.26382        -2.27330
H          5.68833         4.73223        -2.61796
O         19.42101         5.57093         1.43408
H         20.24756         5.25637         1.85611
O          4.46036        12.30841         2.62371
H          4.96212        12.87779         3.24620
O         15.44580        16.12810        -2.26846
H         16.15690        15.59707        -2.70476
O         12.21434         5.62781         2.60651
H         12.96054         5.05736         2.91996
O         18.41011         6.31919        -2.02063
H         19.30289         6.59342        -2.31960
O          8.35150         7.49595         2.03645
H          8.18263         8.34791         2.49424
O         16.47381        15.30740         1.18146
H         15.65574        15.56389         1.67393
O          3.73353         3.67267         1.14198
H          2.94035         3.20806         1.48127
O         17.02734        14.00036        -2.20965
H         17.82847        13.52459        -2.54118
O         15.39076         8.30653         2.23750
H         14.71428         8.65085         2.85700
O          5.97432        10.15040         2.34581
H          5.25985        10.71858         2.73938
O         11.29569        12.20736         2.55988
H         12.15433        11.78871         2.78515
O         12.08911        14.09134        -1.44473
H         11.31313        13.52028        -1.62542
O         15.45300         7.97325        -1.39494
H         16.09187         7.52284        -1.98864
O         16.35445         4.00226        -1.64095
H         17.00706         4.30382        -2.31517
O          9.92020        17.63893         2.01522
H          9.90824        16.83782         2.58139
H          0.40520         1.62879        -1.27023
H          0.38103         4.08441        -1.28779
H          2.50299         0.34613        -1.00886
H          0.35017         6.03220        -1.08386
H          0.34310         8.45000        -0.88542
H          0.47523        10.41881        -1.07377
H          0.27962        12.71721        -0.25432
H          0.10563        14.62433         1.13371
H          0.19987        16.76840         0.12276
H          1.53517        18.25759        -1.57704
H          4.97508         0.35064        -0.78559
H          3.69215        19.37728        -2.09268
H          7.40438         0.31817        -0.29422
H          6.17602        19.64208        -1.66693
H          9.85027         0.27573         0.01433
H          8.50534        19.89777        -1.21599
H         12.28229         0.21305         0.34534
H         10.91847        20.14891        -0.91674
H         14.73656         0.19786         0.37933
H         13.38921        20.29913        -0.63053
H         17.26982         0.13812         0.12824
H         15.90352        20.35166        -0.54073
H         19.66528         0.15858        -0.49003
H         18.36600        20.33571        -0.27166
H         21.78708         1.38390        -0.42611
H         23.03984         3.56696        -0.15046
H         23.07099         6.01185        -0.32644
H         23.10673         7.94009        -0.46518
H         23.13307        10.38139        -0.48231
H         23.06144        12.31244         0.16045
H         23.05297        14.74986         0.16435
H         22.98676        16.68852         0.51591
H         20.75773        20.36456         0.17324
H         22.88055        19.15064         0.64193
