         210
 CSIRO Nanostructure Databank - Neutral Graphene Oxide Data Set
C         30.45748        31.74784         1.64743
C         30.50731        32.99725         1.65392
C         30.51007        36.12374         1.36568
C         30.50369        37.34359         1.11847
C         30.47154        40.34079         0.31127
C         30.46059        41.58965         0.09775
C         32.85660        28.97145         1.22336
C         31.72192        29.48970         1.42790
C         32.85595        31.60825         1.55125
C         31.60431        30.89299         1.54794
C         32.87058        33.08451         1.76251
C         31.61097        33.88188         1.62513
C         32.87790        35.99362         1.18333
C         31.63808        35.25470         1.44426
C         32.85603        37.39258         0.82933
C         31.62787        38.14836         0.77359
C         32.82958        40.15532        -0.03722
C         31.61114        39.49682         0.38448
C         32.77556        41.50712        -0.75549
C         31.47831        42.39932        -0.36891
C         32.80971        44.30968        -0.97428
C         31.74678        43.74522        -0.59346
C         35.34104        27.50076         0.09275
C         35.31489        28.86033         0.61424
C         34.13932        29.50887         1.12083
C         35.35436        31.65560         1.23173
C         34.11030        30.94267         1.34183
C         35.40862        33.07585         1.26442
C         34.17354        33.85472         1.57911
C         35.32401        36.00764         1.03542
C         34.11043        35.29817         1.22874
C         35.30160        37.37471         0.69819
C         34.07195        38.08243         0.52535
C         35.28801        40.13619        -0.36903
C         34.03034        39.45905         0.06306
C         35.29821        41.61493        -0.59142
C         34.08173        42.30080        -0.70153
C         35.33476        44.36514        -1.20546
C         34.11793        43.71728        -0.94098
C         35.54712        45.75303        -1.53984
C         37.75480        27.40903        -0.19243
C         36.44305        26.92058        -0.07870
C         37.69939        28.94232        -0.25106
C         36.52076        29.53488         0.49996
C         37.93382        31.59459         1.01194
C         36.63535        30.81769         1.28541
C         37.91107        33.10095         1.04468
C         36.60119        33.78990         1.10879
C         37.92199        35.98497         1.09356
C         36.60204        35.26477         1.23703
C         37.89567        37.46494         0.84040
C         36.56797        38.14205         0.64530
C         37.84064        40.24202         0.05248
C         36.57995        39.44276        -0.08856
C         37.81819        41.66732        -0.39077
C         36.53358        42.30441        -0.78121
C         37.87497        44.20365        -1.76845
C         36.56416        43.65267        -1.17802
C         37.97809        45.82801        -2.11641
C         36.60934        46.32656        -1.78696
C         40.18485        24.65115        -0.55992
C         39.14164        25.32362        -0.40422
C         40.22991        27.42295        -0.45841
C         38.95761        26.72838        -0.32619
C         40.23873        28.85533        -0.29756
C         39.04562        29.56997         0.02748
C         40.31849        31.66479         0.18818
C         39.10730        30.92417         0.37859
C         40.31705        33.10295         0.31636
C         39.12693        33.83457         0.61203
C         40.35158        35.95261         0.49837
C         39.13774        35.23518         0.67544
C         40.35274        37.41101         0.40926
C         39.13504        38.12881         0.36198
C         40.33043        40.21238        -0.17488
C         39.12962        39.50627         0.06334
C         40.32622        41.64776        -0.44683
C         39.10559        42.34607        -0.66204
C         40.30967        44.44857        -0.90173
C         39.11288        43.69705        -1.04590
C         40.29087        45.89976        -0.96927
C         39.09052        46.53671        -1.39795
C         40.14841        48.65406        -0.85356
C         39.20740        47.91849        -1.27341
C         42.72853        24.69440        -1.04076
C         41.45958        25.24005        -0.75966
C         42.64841        27.45583        -0.98533
C         41.44662        26.70439        -0.70666
C         42.64428        28.88490        -0.84761
C         41.46783        29.57479        -0.41510
C         42.74823        31.71954        -0.41546
C         41.50653        30.99364        -0.23752
C         42.77379        33.11698        -0.13802
C         41.54134        33.81302         0.15692
C         42.83113        35.91259         0.45484
C         41.54544        35.22078         0.32496
C         42.83197        37.44823         0.46655
C         41.55725        38.13441         0.25258
C         42.82425        40.20746        -0.21009
C         41.56420        39.51589        -0.05613
C         42.85222        41.64464        -0.67881
C         41.53666        42.36004        -0.52121
C         42.72010        44.52228        -0.25932
C         41.52073        43.77393        -0.58010
C         42.65155        45.93776        -0.16998
C         41.43774        46.64853        -0.52639
C         42.59556        48.69621        -0.00304
C         41.37998        48.10494        -0.46026
C         43.74370        25.38683        -1.30288
C         44.94657        27.54885        -1.90205
C         43.87093        26.78836        -1.38847
C         44.77431        28.94942        -1.95440
C         43.79463        29.65239        -1.22276
C         45.20554        31.75953        -0.83622
C         43.93735        31.05956        -0.88291
C         45.23709        33.12084        -0.40621
C         44.01507        33.82577        -0.17802
C         45.27176        35.95708         0.04066
C         44.06631        35.22740         0.08707
C         45.26295        37.39316         0.03782
C         44.07984        38.12731         0.12352
C         45.31511        40.29852        -0.33799
C         44.02851        39.54187        -0.10914
C         45.22694        41.73835         0.11736
C         44.02557        42.40445        -0.09106
C         45.07280        44.51149         0.57248
C         43.92536        43.82048         0.07802
C         44.99182        45.95050         0.66308
C         43.83736        46.63802         0.28723
C         43.61264        48.04270         0.30395
C         47.39801        27.78278        -2.09383
C         46.30606        27.19796        -2.20067
C         47.78164        29.10070        -1.67060
C         46.68855        29.98570        -1.81157
C         47.71685        31.70981        -0.51220
C         46.51348        31.15076        -1.04503
C         47.71224        33.08768        -0.13820
C         46.48479        33.80758        -0.18966
C         47.74987        35.89049         0.16619
C         46.51830        35.22610        -0.01063
C         47.80170        37.37176         0.10146
C         46.52900        38.14031        -0.04334
C         47.80053        40.33363         0.16202
C         46.50484        39.57451         0.22575
C         47.66448        41.72525         0.75917
C         46.38426        42.40765         0.65147
C         47.35470        44.45107         1.70396
C         46.24524        43.78268         0.96756
C         47.21083        45.91437         1.68647
C         46.22002        46.46352         1.18110
C         50.14621        28.94146        -0.69933
C         48.90988        29.57664        -0.95790
C         50.13967        31.55161         0.02742
C         48.93193        30.94692        -0.48630
C         50.14452        32.97049         0.29835
C         48.94176        33.73961         0.17872
C         50.21071        35.85369         0.51303
C         48.96945        35.16730         0.30264
C         50.26193        37.37817         0.33671
C         48.96134        38.04305         0.80921
C         50.14778        40.23488         1.01722
C         48.99393        39.56163         0.68884
C         50.12076        41.69370         1.20178
C         48.81424        42.34955         1.23503
C         49.98645        44.35078         1.98403
C         48.67838        43.71295         1.84422
C         51.20109        29.41389        -0.21262
C         52.46932        31.52960         0.60900
C         51.35974        30.76930         0.16994
C         52.42502        32.77099         0.79428
C         51.34947        33.67396         0.65541
C         52.54972        35.91289         0.96779
C         51.37568        35.09324         0.72869
C         52.50236        37.15005         1.13772
C         51.46359        38.10084         0.99528
C         52.45957        40.34915         1.56357
C         51.40181        39.45335         1.22964
C         52.47733        41.59396         1.63324
C         51.31115        42.41148         1.51046
C         51.07500        43.79968         1.74611
O         42.91607        36.67765         1.70641
O         36.02248        39.38714        -1.42971
O         37.26244        38.22263         1.92728
O         47.74612        43.81669         2.93644
O         45.67805        29.68357        -2.73767
O         37.74599        41.29342         1.05966
O         37.41052        35.65907         2.41763
O         47.47039        37.84360        -1.24116
O         38.28611        32.30495         2.24910
O         33.65976        33.53279         2.91341
O         48.76944        37.73906         2.21178
H         49.46775        38.19011         2.73179
O         38.24702        45.95563        -3.49714
H         37.52417        45.51644        -3.99428
O         50.37823        37.63129        -1.07723
H         51.17843        37.17346        -1.41007
O         37.92255        43.55172        -3.06205
H         38.82912        43.65035        -3.42442
O         45.49311        40.35013        -1.80635
H         46.43890        40.62319        -1.95303
O         36.70899        30.37115         2.67674
H         37.10593        31.11641         3.18763
O         43.06243        41.59924        -2.12897
H         43.94188        41.16039        -2.27817
O         37.45768        29.25876        -1.67170
H         36.63583        28.78996        -1.93620
O         32.56610        41.17963        -2.14331
H         32.61633        42.00500        -2.67048
O         48.11274        40.51873        -1.28532
H         48.22423        39.59746        -1.63805
