         236
 CSIRO Nanostructure Databank - Neutral Graphene Oxide Data Set
C        -11.20242         0.65797         0.29124
C        -10.05825         1.50064        -0.10294
C         -8.73666         0.74234        -0.37869
C         -7.48374         1.48459        -0.17086
C         -6.23831         0.74178        -0.22512
C         -4.99041         1.45191        -0.12576
C         -3.76036         0.74917        -0.09626
C         -2.53642         1.42621         0.04031
C         -1.29191         0.75861         0.16167
C         -0.09500         1.46870         0.34470
C          1.13751         0.73322         0.67670
C          2.39841         1.49798         0.97708
C          3.66628         0.65094         1.17318
C          4.94761         1.50123         1.08461
C          6.16470         0.82455         0.41051
C          7.47180         1.50355         0.64798
C          8.79648         0.82873         0.43622
C          9.52919         1.48547        -0.77654
C         10.86348         0.77870        -0.91678
C         -9.95939         2.91768         0.26094
C         -8.75135         3.59785         0.22465
C         -7.51449         2.84771         0.08574
C         -6.25449         3.53708         0.41481
C         -4.98136         2.87386         0.11008
C         -3.80017         3.61147         0.10627
C         -2.55139         2.87995        -0.15908
C         -1.24701         3.59078        -0.22991
C         -0.00788         2.87834         0.13888
C          1.17919         3.59106         0.20157
C          2.42723         2.99902         0.71259
C          3.70256         3.73005         0.58451
C          4.91905         3.02469         1.04081
C          6.24178         3.74751         0.91522
C          7.50704         2.97497         0.67017
C          8.65292         3.68645         0.04034
C          9.63622         2.97952        -0.58124
C         -8.68998         5.05230         0.30914
C         -7.51593         5.77369         0.35173
C         -6.24003         5.05018         0.56136
C         -4.95869         5.74960         0.38120
C         -3.77793         5.04671         0.27008
C         -2.47489         5.81986         0.26730
C         -1.22918         5.05841        -0.12013
C         -0.05781         5.68968        -0.38217
C          1.22052         4.92733        -0.44045
C          2.53634         5.62409        -0.66641
C          3.77550         5.01268        -0.04524
C          4.97763         5.73483        -0.06022
C          6.16304         5.25560         0.74918
C          7.47569         5.86619         0.28972
C          8.61174         5.13964         0.04104
C         -7.45155         7.21640         0.23173
C         -6.27066         7.91960         0.27439
C         -4.95810         7.24072         0.58767
C         -3.77241         7.94429        -0.02668
C         -2.55235         7.17079        -0.46531
C         -1.28576         7.84251         0.07661
C         -0.06084         7.16271        -0.51361
C          1.20666         7.89199        -0.80282
C          2.51423         7.12314        -1.16092
C          3.78794         7.90592        -0.81417
C          5.05471         7.16309        -0.43086
C          6.23410         7.95187         0.03339
C          7.43590         7.30773         0.22388
C         -6.19493         9.36267         0.17587
C         -5.00067        10.02766         0.13134
C         -3.73441         9.31830        -0.01023
C         -2.46278        10.01448        -0.17185
C         -1.26185         9.34439        -0.10130
C          0.02828         9.98812        -0.15681
C          1.22353         9.32557        -0.39679
C          2.48926         9.98470        -0.28175
C          3.70128         9.33784        -0.43937
C          4.93520        10.03381        -0.17090
C          6.12435         9.38682         0.02751
C        -11.15371        -0.69912         0.23378
C         -9.93165        -1.43906        -0.04052
C         -8.72765        -0.72059        -0.21984
C         -7.49044        -1.40978        -0.27923
C         -6.27087        -0.66069        -0.37644
C         -5.03285        -1.41659        -0.59276
C         -3.73324        -0.68604        -0.39925
C         -2.52542        -1.48392        -0.07776
C         -1.26283        -0.72814         0.17290
C         -0.00210        -1.37901        -0.35369
C          1.20172        -0.70597         0.28375
C          2.50398        -1.39472         0.00439
C          3.72890        -0.63274         0.39667
C          4.93273        -1.35563         0.37222
C          6.15860        -0.68141         0.55104
C          7.42297        -1.41865         0.41482
C          8.70925        -0.68385         0.24057
C          9.70415        -1.38239        -0.70441
C         10.96261        -0.55709        -0.81639
C         -9.88847        -2.85343         0.00919
C         -8.68426        -3.56496        -0.14865
C         -7.46584        -2.83591        -0.29819
C         -6.21973        -3.54888        -0.42997
C         -5.01672        -2.88684        -0.50607
C         -3.73094        -3.59821        -0.57659
C         -2.50515        -2.89504        -0.48074
C         -1.22272        -3.68561        -0.40901
C          0.02576        -2.88209        -0.09276
C          1.16232        -3.49929         0.31103
C          2.43635        -2.76854         0.69640
C          3.69404        -3.52794         0.32871
C          4.86258        -2.82040         0.19270
C          6.09363        -3.54030        -0.17542
C          7.38754        -2.80537        -0.16547
C          8.66817        -3.57389        -0.20396
C          9.82523        -2.85302        -0.37284
C         -8.64285        -5.01788        -0.08344
C         -7.49135        -5.73490        -0.29891
C         -6.24385        -5.01919        -0.76643
C         -4.98525        -5.74066        -0.24117
C         -3.71529        -5.00535        -0.54211
C         -2.39511        -5.72634        -0.43346
C         -1.43367        -4.94471         0.48668
C         -0.11491        -5.67925         0.76305
C          1.18818        -4.94857         0.65137
C          2.47114        -5.67498         0.47508
C          3.65311        -4.98140         0.28336
C          4.91538        -5.69542         0.09898
C          6.09988        -5.01122        -0.11529
C          7.36776        -5.70499        -0.24004
C          8.57782        -5.01228        -0.23634
C         -7.41147        -7.17386        -0.18654
C         -6.24469        -7.88805        -0.34445
C         -4.95289        -7.20113        -0.73902
C         -3.70364        -7.90676        -0.26285
C         -2.49149        -7.20398        -0.13638
C         -1.31981        -7.89493         0.22839
C         -0.10901        -7.18600         0.69238
C          1.21071        -7.92276         0.69804
C          2.54061        -7.16422         0.80697
C          3.69126        -7.82738         0.08802
C          4.88139        -7.13972        -0.02554
C          6.13017        -7.83778        -0.30042
C          7.32033        -7.14460        -0.34178
C         -6.19621        -9.31895        -0.15587
C         -5.01703        -9.99754        -0.06832
C         -3.73340        -9.31493        -0.05772
C         -2.53696       -10.01357         0.14275
C         -1.29846        -9.32624         0.26095
C         -0.05784       -10.02065         0.29347
C          1.19751        -9.34484         0.25681
C          2.36858        -9.98004        -0.10940
C          3.59218        -9.20747        -0.50806
C          4.89749        -9.95559        -0.38398
C          6.07470        -9.29453        -0.35749
O          5.90645         1.11049        -1.04048
H          6.78581         1.13499        -1.50521
O         -0.99014        -4.30934        -1.73633
O          8.44006        -1.35936         1.50342
O          0.20067         7.64111        -1.87387
O         -1.90541         3.19022        -1.48406
O          3.41467        -8.97314        -1.96780
H          4.26106        -8.61277        -2.31016
O          6.66667        -2.93085        -1.43995
O          2.41659        -2.58495         2.11869
H          2.10309        -3.41236         2.53987
O          0.95227        -0.35597         1.65991
O         -4.87712        -7.23258        -2.19908
H         -4.01522        -6.84397        -2.46518
O          2.56553        -1.63726        -1.43438
H          3.49247        -1.85966        -1.67010
O          2.21189         2.41825         2.07755
O         -2.07948        -4.65724         1.71648
H         -1.37935        -4.48972         2.38826
O         -5.08734        -5.79503         1.21483
H         -4.23776        -5.49037         1.60517
O         -4.22689        -0.94741        -1.74890
O          3.59504         0.19854         2.54931
H          3.49525         1.01042         3.09914
O         -9.57697         1.22442        -1.46697
O         -6.26385         4.17256         1.74174
O          2.91164        -7.20195         2.21937
H          2.06648        -7.11320         2.72257
O         -1.34836         7.51567         1.51654
O          5.91588         5.77843         2.09143
H          6.45243         5.22384         2.70484
O          2.54051         7.07496        -2.59270
H          1.83061         6.45967        -2.88169
O         -0.03573        -1.14680        -1.77332
H          0.82864        -1.43785        -2.14790
O          9.64043         1.07620         1.58384
H          9.28244         0.53370         2.32073
O         -2.57613         7.02705        -1.88225
H         -1.66925         7.13538        -2.24578
O          0.52934        -5.18307         1.98075
O         -6.26645        -5.02261        -2.21574
H         -6.08733        -5.94627        -2.52165
O          1.93563         4.80464        -1.72974
O          8.69492         1.28246        -1.94731
H          8.88046         0.37034        -2.30035
O          4.79788         7.57615        -1.81626
O         -4.77836         7.42072         2.03731
H         -3.88227         7.06942         2.26335
O          7.14751         3.48658         2.03451
O          9.11235        -1.34178        -2.05706
H          8.35924        -1.97527        -2.10162
O         -2.21701         6.29482         1.65428
O         -1.95694        -1.33157         1.29733
O          0.41973        -7.78034         1.92797
O         -1.70552        -5.61103        -1.74563
O          5.00403         2.25763         2.30886
H         11.93737        -1.06238        -0.89008
H         11.76976         1.39304        -1.03575
H         10.46508         3.51151        -1.07427
H          9.51852         5.67045        -0.29010
H          8.36657         7.88735         0.32611
H          7.02767         9.97176         0.25620
H          4.89189        11.12903        -0.07551
H          2.49171        11.04428         0.01700
H          0.06218        11.07640         0.01006
H         -2.47108        11.10859        -0.29030
H         -4.98782        11.12697         0.09334
H         -7.13658         9.93178         0.14319
H         -8.39800         7.76205         0.08757
H         -9.64456         5.59617         0.23376
H        -10.87788         3.45135         0.54995
H        -12.12017         1.15867         0.63573
H        -12.04905        -1.28196         0.49832
H        -10.82480        -3.41000         0.16688
H         -9.57495        -5.54567         0.17496
H         -8.32976        -7.71876         0.08835
H         -7.14842        -9.86193        -0.05539
H         -5.02004       -11.08776         0.07730
H         -2.55259       -11.11099         0.21613
H         -0.06850       -11.11264         0.15811
H          2.33180       -11.04384        -0.39091
H          4.87644       -11.05482        -0.42931
H          7.02601        -9.84819        -0.35052
H          8.26710        -7.69378        -0.45753
H          9.51448        -5.58425        -0.32027
H         10.79769        -3.35945        -0.46724
