         324
 CSIRO Nanostructure Databank - Neutral Graphene Oxide Data Set
C          1.20732         1.90747         0.33272
C          1.17448         3.31335         0.38694
C          2.40615         1.22518         0.29143
C          2.35169         4.08186         0.42663
C          1.10611         6.25355         0.25167
C          1.09970         7.64129         0.27593
C          2.30199         5.51595         0.37818
C          2.29361         8.42311         0.24067
C          1.07585        10.59083         0.58464
C          1.08283        11.97592         0.59626
C          2.23674         9.85049         0.27685
C          2.27371        12.75383         0.43388
C          1.04674        14.95737         0.67413
C          1.05465        16.32324         0.79171
C          2.23762        14.17235         0.51509
C          2.26517        17.11930         0.53424
C          2.38642        18.52939         0.93763
C          3.65492         1.92529         0.34813
C          3.63426         3.38483         0.45180
C          4.84268         1.21107         0.24364
C          4.82957         4.08703         0.44317
C          3.54078         6.29930         0.54560
C          3.55739         7.74352         0.20310
C          4.84862         5.55694         0.61185
C          4.77485         8.41364        -0.05229
C          3.42799        10.61028        -0.13607
C          3.51220        12.06259         0.15501
C          4.69939         9.84766        -0.42526
C          4.75715        12.71057         0.13029
C          3.51567        14.88225         0.64890
C          3.56901        16.34609         0.40943
C          4.82634        14.12723         0.51394
C          4.84940        17.03504         0.64100
C          3.59881        19.13300         1.03537
C          4.85465        18.42185         0.86136
C          6.14621         1.85295         0.34900
C          6.12194         3.37295         0.43376
C          7.39965         1.17052        -0.03817
C          7.29641         4.09268        -0.15779
C          6.11562         6.33009         0.38253
C          6.04715         7.76429         0.00359
C          7.36653         5.57283         0.05860
C          7.27096         8.43286        -0.28424
C          5.96825        10.63464        -0.57839
C          5.98756        12.06892        -0.23591
C          7.26995         9.88279        -0.56860
C          7.22120        12.75747        -0.24651
C          6.06245        14.89314         0.27527
C          6.06870        16.30499         0.51908
C          7.24871        14.20461        -0.00961
C          7.30518        17.01024         0.58378
C          6.10144        19.08581         1.02159
C          7.30142        18.40412         0.88643
C          8.58097         1.85796        -0.24159
C          8.55025         3.32959        -0.47475
C          9.84948         1.20791        -0.32804
C          9.83377         4.07439        -0.48724
C          8.52323         6.30866        -0.53080
C          8.52197         7.78053        -0.37275
C          9.80974         5.54888        -0.68716
C          9.75471         8.49219        -0.53618
C          8.52280        10.64654        -0.44527
C          8.45771        12.04139        -0.43598
C          9.76056         9.92122        -0.51990
C          9.70321        12.82994        -0.75948
C          8.47970        14.93114         0.03663
C          8.52884        16.30256         0.34099
C          9.73683        14.17431        -0.07033
C          9.77746        17.04967         0.22755
C          8.60362        19.11526         1.17749
C          9.81244        18.47101         0.53231
C         11.04634         1.93140        -0.41655
C         11.01146         3.39341        -0.40596
C         12.30326         1.27833        -0.52870
C         12.32224         4.11545        -0.20719
C         11.07388         6.31000        -0.56567
C         11.01519         7.77530        -0.60048
C         12.24729         5.60656        -0.44666
C         12.21145         8.50242        -0.64752
C         10.99603        10.65373        -0.59474
C         11.00305        12.07370        -0.59704
C         12.22677         9.93551        -0.67258
C         12.22087        12.78446        -0.63571
C         11.02643        14.94238        -0.14206
C         10.94803        16.40626        -0.15934
C         12.25705        14.24669        -0.59013
C         12.11642        17.16736        -0.60789
C         10.97118        19.19303         0.43580
C         12.15774        18.66249        -0.24604
C         13.51035         1.97094        -0.74803
C         13.44656         3.46162        -1.02166
C         14.73913         1.30717        -0.79011
C         14.77774         4.16696        -0.83120
C         13.54136         6.30289        -0.38417
C         13.50635         7.79849        -0.52352
C         14.79672         5.58725        -0.71173
C         14.74621         8.45632        -1.01061
C         13.44640        10.66478        -0.75997
C         13.44070        12.05975        -0.74575
C         14.72555         9.96938        -1.04020
C         14.72886        12.77815        -0.88767
C         13.41684        14.96176        -0.73436
C         13.41197        16.44596        -0.83017
C         14.71727        14.26754        -0.88373
C         14.70292        17.22112        -0.69207
C         13.48577        19.27911        -0.02315
C         14.66305        18.63583        -0.22356
C         15.98759         2.00041        -0.88108
C         15.96617         3.44890        -0.93831
C         17.19700         1.30749        -0.72081
C         17.23595         4.17774        -1.04181
C         16.00852         6.31900        -0.76543
C         16.02912         7.75595        -0.84055
C         17.25705         5.62915        -0.84704
C         17.22921         8.47383        -0.92283
C         16.01045        10.63982        -0.84407
C         15.97182        12.07655        -0.37423
C         17.18738         9.92826        -0.91386
C         17.25119        12.85399        -0.61368
C         15.95720        14.96914        -0.41966
C         15.95622        16.45297        -0.36816
C         17.25343        14.25368        -0.54163
C         17.24407        17.17059        -0.60522
C         15.96961        19.31449         0.17776
C         17.22369        18.65672        -0.39093
C         18.45980         1.95377        -0.51957
C         18.55027         3.40599        -0.82026
C         19.56127         1.26531        -0.05202
C         19.69293         4.19398        -0.35815
C         18.47335         6.31827        -0.70936
C         18.49246         7.77004        -0.75277
C         19.67511         5.58216        -0.38626
C         19.70189         8.46627        -0.62755
C         18.45493        10.68793        -0.99786
C         18.47013        12.14332        -0.73348
C         19.74945         9.92214        -0.88396
C         19.69982        12.82654        -0.63310
C         18.48142        14.98442        -0.51119
C         18.52026        16.42737        -0.49486
C         19.70504        14.25192        -0.50973
C         19.72511        17.13964        -0.37440
C         18.54034        19.30267        -0.26826
C         19.71345        18.61525        -0.41884
C         20.80065         1.94611         0.37982
C         20.85134         3.45196         0.20714
C         22.00962         1.10396         0.69846
C         22.12778         4.21259         0.17411
C         20.81480         6.37149         0.17026
C         20.90580         7.81554        -0.16211
C         22.09993         5.64105         0.51573
C         22.08501         8.50779         0.03392
C         20.96030        10.68804        -0.55728
C         20.94539        12.07377        -0.55248
C         22.23497         9.89266        -0.57263
C         22.18336        12.80706        -0.38624
C         20.93508        14.96197        -0.33393
C         20.94028        16.37786        -0.16057
C         22.16373        14.22411        -0.27599
C         22.15443        16.97780         0.28642
C         20.90064        19.48356        -0.85481
C         22.23527        19.17696        -0.23691
C         23.27174         1.41936         0.31318
C         23.33321         3.66187        -0.11782
C         24.58390         0.96468         0.77031
C         24.55109         4.21603         0.45340
C         23.38774         6.36499         0.53909
C         23.30456         7.83428         0.56087
C         24.60441         5.68543         0.63728
C         24.63044         8.57787         0.50023
C         23.44727        10.67624        -0.14653
C         23.41303        12.10600        -0.25163
C         24.64427         9.99485         0.09326
C         24.62799        12.84017        -0.15003
C         23.38992        14.92735        -0.11550
C         23.38727        16.31640         0.22314
C         24.62370        14.23453        -0.15735
C         24.65040        16.98993         0.44552
C         23.44628        19.65753        -0.63148
C         24.70573        19.16122        -0.09183
C         25.62125         1.87003         0.95551
C         25.40671         3.32060         1.06095
C         26.97715         1.39384         1.19805
C         27.26686         4.39096         1.20855
C         25.87050         6.41528         0.65646
C         25.88853         7.81563         0.42885
C         27.15526         5.74395         0.74256
C         27.08715         8.52523         0.12263
C         25.90078        10.65344         0.06330
C         25.88725        12.12104         0.10385
C         27.11326         9.94014         0.02864
C         27.17978        12.85332         0.09058
C         25.87599        15.01730        -0.28481
C         25.86966        16.45147         0.06432
C         27.18950        14.29923        -0.25200
C         27.12490        17.18268         0.02336
C         25.96297        19.38452        -0.57037
C         27.14947        18.61294        -0.17292
C         28.17261         2.09638         1.08208
C         28.26907         3.52813         0.82162
C         29.43965         1.38853         1.22829
C         29.48982         4.14500         0.28308
C         28.35233         6.35975         0.36411
C         28.34517         7.77239        -0.03342
C         29.58393         5.61925         0.31080
C         29.66908         8.49248        -0.04856
C         28.39807        10.66057        -0.39436
C         28.44688        12.12472        -0.04758
C         29.67339         9.96874         0.00895
C         29.62707        12.83605         0.07853
C         28.42535        15.03344         0.05658
C         28.36845        16.46877         0.07049
C         29.61542        14.30188         0.19106
C         29.60974        17.17164         0.15987
C         28.37838        19.27291        -0.17085
C         29.60457        18.59720         0.07001
C         30.64981         1.96609         1.02234
C         30.79915         3.32600         0.46145
C         32.00482         4.11557         0.66899
C         30.83070         6.25915         0.30967
C         30.85499         7.76450         0.56315
C         32.01510         5.48069         0.51092
C         32.12219         8.52152         0.24419
C         30.86517        10.65435         0.12517
C         30.88873        12.11831         0.14352
C         32.10360         9.86860         0.14236
C         32.05569        12.85624         0.31500
C         30.86234        15.00707         0.32921
C         30.84748        16.46796         0.31894
C         32.04581        14.26455         0.38949
C         32.02908        17.21904         0.43445
C         30.82741        19.30814         0.17251
C         32.01496        18.62049         0.36683
O         21.14579         6.04055         1.55857
O         17.09175        18.08501        -1.74151
O         11.86464        18.19620        -1.60292
O          3.79018        10.19118        -1.51857
O          8.97878         5.91209        -1.85695
O         26.25111         3.90136         2.03046
O         29.11518         7.98710        -1.30327
O         22.12519        18.27387         0.83571
O         26.51670        12.60098         1.39305
O         14.62934         9.16186        -2.27516
O         23.89004         8.42677         1.77351
O          4.25504        14.44906         1.84020
O         13.69496         7.18940         0.79895
O          7.57767         3.70325        -1.53011
O          2.86794        16.79503        -0.78321
O         23.39969         2.40077        -0.70585
O         14.14998        16.93757        -2.00401
O          4.19106         5.99559         1.85137
O         24.59815        18.27099         1.00664
O         20.54063         2.87039         1.52995
O         19.20826        10.31273        -2.21023
O         26.59301        14.67265        -1.53727
O         10.55871        14.29836         1.12161
O         15.84022        15.69076         0.87465
O          6.36710         2.60208         1.63603
O          7.12462         6.00785         1.42532
O         14.91125        13.51804        -2.13180
O         18.08311         3.73423        -2.16252
O          6.61165        10.26525        -1.84468
O         30.14040         3.49557        -0.83520
O         16.07573        19.31343         1.61301
H         16.03091        18.38793         1.93239
O         28.36270        10.59437        -1.86859
H         28.57338         9.65729        -2.10709
O          9.59670        13.16401        -2.18332
H          9.41510        12.33718        -2.67901
O         30.64365         7.90552         2.01013
H         31.45422         7.59560         2.46580
O         22.49640         9.62805        -2.01354
H         21.63185         9.61162        -2.48083
O         15.78757        12.02237         1.07667
H         16.58562        11.62047         1.47942
O         13.08973         3.63901        -2.41710
H         13.76453         3.19020        -2.96807
O          8.52443        20.50132         0.83487
H          8.46080        20.57249        -0.13958
O         12.70631         3.94629         1.18565
H         12.11644         4.49407         1.74424
O         21.02957        19.35576        -2.27642
H         20.13856        19.42266        -2.67818
H          0.25954         1.35218         0.30300
H          0.19473         3.80917         0.38906
H          2.41883         0.12789         0.22576
H          0.14201         5.73218         0.17750
H          0.12923         8.15479         0.24418
H          0.13853        10.06866         0.82181
H          0.13985        12.49337         0.81797
H          0.08305        14.43735         0.77434
H          0.12156        16.85348         1.03322
H          1.46907        19.08419         1.18548
H          4.80141         0.13416         0.01997
H          3.65422        20.19463         1.31927
H          7.41670         0.07066         0.00855
H          6.11895        20.16210         1.24805
H          9.88490         0.10875        -0.29082
H          8.75325        19.07857         2.29530
H         12.33051         0.17973        -0.45475
H         11.00480        20.21479         0.84409
H         14.75972         0.21562        -0.64581
H         13.50019        20.29884         0.39417
H         17.15514         0.21562        -0.58544
H         15.93937        20.38833        -0.13648
H         19.49204         0.17518         0.08647
H         18.56206        20.40390        -0.21487
H         21.85379         0.31877         1.45405
H         20.62994        20.55727        -0.61017
H         24.78193        -0.11146         0.89802
H         23.48610        20.35703        -1.47800
H         27.07045         0.30264         1.33103
H         26.11572        20.16920        -1.32711
H         29.39686         0.34850         1.58706
H         28.40296        20.35982        -0.33993
H         31.56832         1.40267         1.24853
H         32.90669         3.60762         1.04239
H         32.96591         6.01160         0.66824
H         33.08254         7.98635         0.20120
H         33.05435        10.40003        -0.01011
H         33.02598        12.34610         0.39449
H         33.01300        14.77546         0.49031
H         32.99371        16.71375         0.57826
H         30.82204        20.40528         0.10303
H         32.96084        19.17269         0.45785
