         630
 CSIRO Nanostructure Databank - Neutral Graphene Oxide Data Set
C         22.97818        27.39325        -0.13587
C         22.94299        28.74687        -0.08015
C         23.01182        31.64780        -0.99806
C         23.02393        32.98252        -1.26615
C         22.94459        35.92665        -0.85550
C         22.93806        37.28964        -0.67082
C         22.94098        40.17112        -0.12373
C         22.94425        41.50069         0.21919
C         22.98884        44.34096         1.08751
C         23.01882        45.65243         1.48760
C         25.39488        24.52672        -0.41649
C         24.20743        25.23179        -0.28201
C         25.42507        27.31542        -0.57711
C         24.20769        26.64067        -0.31484
C         25.45053        28.78593        -0.42199
C         24.18861        29.53993        -0.10625
C         25.46573        31.69553        -0.64291
C         24.15039        31.06687        -0.20262
C         25.45720        33.10194        -0.87932
C         24.19688        33.78131        -1.03749
C         25.38314        35.94700        -1.01462
C         24.17011        35.21672        -1.00859
C         25.38524        37.34334        -0.79069
C         24.14917        38.03237        -0.59813
C         25.38917        40.13493        -0.20862
C         24.15387        39.44602        -0.32401
C         25.38857        41.54595         0.09773
C         24.16406        42.22531         0.35837
C         25.43282        44.25037         0.91058
C         24.18884        43.60032         0.78075
C         25.48691        45.56445         1.57218
C         24.25430        46.33370         1.73373
C         25.54951        48.38219         2.14359
C         24.33178        47.66905         2.12802
C         27.93288        23.07105        -0.61357
C         27.89565        24.47686        -0.64856
C         26.61668        25.19207        -0.66704
C         27.89493        27.24674        -1.30429
C         26.61738        26.59899        -0.79425
C         27.87804        28.77186        -1.26297
C         26.62094        29.52700        -0.96194
C         27.89569        31.67003        -1.01469
C         26.66416        30.99430        -0.77666
C         27.90128        33.09203        -1.08947
C         26.67403        33.78943        -1.07365
C         27.91599        35.97209        -1.07820
C         26.64549        35.24830        -1.44660
C         27.90185        37.34085        -0.81104
C         26.63528        38.05932        -0.67200
C         27.90577        40.12781         0.00061
C         26.62184        39.41646        -0.35990
C         27.83936        41.59073        -0.37364
C         26.60454        42.29050         0.06325
C         27.84889        44.45722         0.25950
C         26.62696        43.63347         0.44756
C         27.97246        45.76658         0.90071
C         26.82428        46.35192         1.59648
C         27.98005        48.55792         1.51904
C         26.76443        47.80759         1.76700
C         28.00356        49.99346         1.69604
C         30.32518        23.09088        -0.17306
C         29.12321        22.38928        -0.40685
C         30.31782        24.49868        -0.25090
C         29.12169        25.19716        -0.52869
C         30.34256        27.34795        -0.74165
C         29.15271        26.63415        -0.73327
C         30.35742        28.79801        -0.97764
C         29.14692        29.51162        -1.11434
C         30.36765        31.64539        -1.12301
C         29.13264        30.93063        -1.09802
C         30.35219        33.07231        -1.26026
C         29.15270        33.80205        -1.25032
C         30.36133        35.97327        -1.19057
C         29.15012        35.25250        -1.20991
C         30.38282        37.37153        -0.94084
C         29.14847        38.06866        -0.71721
C         30.38660        40.19109        -0.53993
C         29.16371        39.45670        -0.49167
C         30.40896        41.61060        -0.42399
C         29.12690        42.34102        -0.52269
C         30.40280        44.48544         0.01657
C         29.12442        43.81785        -0.29196
C         30.38255        45.81594         0.42093
C         29.15534        46.49970         0.78669
C         30.39886        48.69718         0.82392
C         29.15482        47.89978         1.14305
C         30.42722        50.10685         1.36757
C         29.15611        50.72463         1.62157
C         32.79062        20.29957         0.43920
C         31.59438        20.99639         0.34004
C         32.81769        23.05833        -0.09668
C         31.57753        22.37242         0.05279
C         32.83776        24.49066        -0.22123
C         31.57288        25.26126         0.08887
C         32.80378        27.33699        -0.52282
C         31.59721        26.67725        -0.44460
C         32.87521        28.75506        -1.04466
C         31.57609        29.51621        -0.97120
C         32.86958        31.65439        -1.02694
C         31.60211        30.92574        -1.06795
C         32.89930        33.06349        -1.21286
C         31.62965        33.75891        -1.51088
C         32.88827        35.98789        -1.24891
C         31.62477        35.28604        -1.48245
C         32.87041        37.37867        -1.07098
C         31.62169        38.08272        -0.90991
C         32.85661        40.21902        -0.74352
C         31.62775        39.48950        -0.71966
C         32.86391        41.62672        -0.54625
C         31.62799        42.33126        -0.36857
C         32.88195        44.44139        -0.00040
C         31.64192        43.75418        -0.11695
C         32.92216        45.83153         0.35250
C         31.66040        46.46374         0.76821
C         32.94427        48.64979         1.01804
C         31.66853        47.92106         1.11229
C         32.94401        50.03002         1.61585
C         31.63445        50.78784         1.46634
C         32.89075        52.87151         1.69474
C         31.69507        52.20517         1.65225
C         35.31033        18.80915         0.44739
C         35.28895        20.20502         0.27455
C         34.02724        20.93812         0.18786
C         35.31305        22.99972        -0.47343
C         34.03022        22.32059        -0.08225
C         35.30112        24.48933        -0.27014
C         34.05875        25.18608        -0.29224
C         35.27407        27.32450        -0.25198
C         34.06092        26.63723        -0.32049
C         35.27212        28.79540        -0.12625
C         34.00379        29.53731        -0.41249
C         35.30356        31.66607        -0.60939
C         34.07273        30.98129        -0.71611
C         35.33482        33.07635        -0.86899
C         34.10759        33.78121        -1.12873
C         35.32547        35.93326        -1.25060
C         34.12559        35.24152        -1.23575
C         35.35859        37.41626        -1.55659
C         34.09457        38.13181        -1.13027
C         35.33623        40.28672        -1.31055
C         34.08327        39.50662        -0.99226
C         35.33360        41.69241        -0.76272
C         34.11266        42.35442        -0.51946
C         35.34354        44.47890        -0.17566
C         34.11684        43.75312        -0.22211
C         35.34847        45.89934         0.03132
C         34.10917        46.57407         0.32323
C         35.34956        48.75599         0.58911
C         34.11776        48.00357         0.65860
C         35.40233        50.11730         0.95128
C         34.19126        50.82734         1.32316
C         35.39943        52.99542         1.56093
C         34.14756        52.20312         1.50083
C         35.41817        54.44323         1.33405
C         37.74103        18.80088         0.69668
C         36.49917        18.12466         0.65155
C         37.75804        20.20898         0.47895
C         36.52997        20.91235         0.25749
C         37.75231        23.05389         0.16986
C         36.55138        22.32012         0.04782
C         37.73490        24.47650         0.08933
C         36.52666        25.18048        -0.15617
C         37.73516        27.35296        -0.19697
C         36.52950        26.63608        -0.19485
C         37.73128        28.78161        -0.16355
C         36.54596        29.52797        -0.15816
C         37.73905        31.69565        -0.22357
C         36.53523        30.96841        -0.29214
C         37.78945        33.09263        -0.55230
C         36.57644        33.75949        -0.88929
C         37.88007        35.95591        -1.07258
C         36.59121        35.18932        -1.24271
C         37.82962        37.42588        -0.90389
C         36.60912        38.13111        -1.07799
C         37.80771        40.24627        -0.79873
C         36.59554        39.52211        -0.97154
C         37.80574        41.67706        -0.72556
C         36.55873        42.38513        -0.63161
C         37.81516        44.50157        -0.33169
C         36.57483        43.78928        -0.36937
C         37.79704        45.92788        -0.16676
C         36.56898        46.61316        -0.01769
C         37.84364        48.78884         0.14869
C         36.52068        48.12255        -0.13083
C         37.83797        50.22445         0.42671
C         36.64355        50.84380         0.85270
C         37.89055        53.06292         0.91724
C         36.71117        52.25494         1.26546
C         37.86203        54.46209         1.02989
C         36.58589        55.12318         1.17892
C         40.18242        16.02540         1.43127
C         38.99634        16.69702         1.23019
C         40.20758        18.79927         0.88635
C         38.97556        18.09039         0.94780
C         40.21035        20.19222         0.57942
C         39.00484        20.92119         0.43985
C         40.21660        23.09910         0.38891
C         39.00797        22.35674         0.33781
C         40.24784        24.51224         0.43851
C         38.95194        25.28519         0.48701
C         40.32811        27.32933        -0.14616
C         39.02541        26.55148        -0.36794
C         40.30823        28.83036        -0.03725
C         38.98659        29.49197         0.13535
C         40.27417        31.68677         0.18167
C         38.97197        30.99901         0.18496
C         40.21648        33.14299         0.12985
C         39.02194        33.80908        -0.44499
C         40.27414        35.92641        -0.42839
C         39.08638        35.21894        -0.62585
C         40.26069        37.38616        -0.36606
C         39.02019        38.12334        -0.68277
C         40.27472        40.27191        -0.82008
C         39.04059        39.54408        -0.71575
C         40.26179        41.66142        -0.84970
C         39.03097        42.38229        -0.68504
C         40.28947        44.53016        -0.53917
C         39.04271        43.80699        -0.52521
C         40.25196        45.94969        -0.33170
C         39.04806        46.64859        -0.16027
C         40.31442        48.84697         0.28720
C         39.02275        48.09141         0.04074
C         40.24617        50.27912        -0.24483
C         39.03646        50.97853         0.31471
C         40.30372        53.11201         0.38683
C         39.07807        52.37780         0.51761
C         40.30731        54.51873         0.59668
C         39.08704        55.21310         0.87209
C         40.31530        57.32257         0.95715
C         39.12699        56.62132         1.03920
C         42.65722        16.01346         1.56119
C         41.42744        16.70755         1.35570
C         42.70553        18.78796         1.03103
C         41.44674        18.09924         1.08103
C         42.73923        20.18560         0.76655
C         41.49436        20.85964         0.37108
C         42.72287        23.09974         0.68601
C         41.50150        22.39482         0.28297
C         42.67709        24.48159         0.83735
C         41.47192        25.21298         0.56081
C         42.68435        27.40040         0.64277
C         41.53171        26.65479         0.38815
C         42.71528        28.85238         0.57558
C         41.52227        29.56049         0.38091
C         42.73716        31.72075         0.49823
C         41.47688        31.00283         0.39101
C         42.78082        33.10345         0.30114
C         41.53833        33.87666         0.19112
C         42.84316        35.98879        -0.24125
C         41.58978        35.19724        -0.53406
C         42.85105        37.37968        -0.44230
C         41.56923        38.12517        -0.40910
C         42.84774        40.19864        -1.21962
C         41.53540        39.50028        -0.98398
C         42.79211        41.69684        -1.36727
C         41.49216        42.43145        -1.14592
C         42.77898        44.56847        -0.78545
C         41.51466        43.87329        -0.81730
C         42.78470        45.94322        -0.51763
C         41.52107        46.68761        -0.49979
C         42.79249        48.91594        -0.15596
C         41.53039        48.17215        -0.30943
C         42.78309        50.31600        -0.12458
C         41.54676        51.02764        -0.03957
C         42.78751        53.14562         0.16158
C         41.54227        52.41708         0.15047
C         42.78325        54.55734         0.32953
C         41.54447        55.24350         0.53827
C         42.78054        57.36654         0.68174
C         41.54184        56.65222         0.72207
C         43.86018        16.67278         1.49602
C         45.17083        18.78071         1.14485
C         43.92208        18.07382         1.23124
C         45.17533        20.19768         0.99592
C         43.94443        20.90999         0.82465
C         45.15899        23.04325         1.01398
C         43.95458        22.35751         0.83051
C         45.19232        24.47458         1.49445
C         43.87107        25.22055         1.31072
C         45.20100        27.40422         1.13406
C         43.88712        26.71256         1.18450
C         45.17743        28.88942         1.39921
C         43.93777        29.59243         0.85352
C         45.16409        31.76052         1.21628
C         43.94303        30.97349         0.78246
C         45.18092        33.18871         0.69861
C         44.03113        33.83994         0.29811
C         45.26011        36.01823         0.09557
C         44.04073        35.28259         0.02767
C         45.28215        37.41985        -0.19044
C         44.06945        38.11372        -0.47427
C         45.30571        40.22069        -0.70171
C         44.10033        39.52205        -0.77357
C         45.36452        41.67159        -1.01579
C         44.08395        42.45076        -1.26241
C         45.27369        44.56569        -0.78681
C         44.04711        43.88549        -0.93337
C         45.30589        45.99509        -0.57700
C         44.03728        46.64510        -0.24738
C         45.29444        48.91134        -0.32373
C         44.04626        48.18729        -0.05451
C         45.26650        50.34798        -0.31267
C         44.03860        51.03730        -0.13623
C         45.25165        53.18830        -0.08794
C         44.02006        52.45575        -0.02218
C         45.24710        54.60047         0.13071
C         44.01937        55.28797         0.32474
C         43.96894        56.71107         0.49717
C         47.61060        18.79056         1.11423
C         46.42164        18.10498         1.21252
C         47.63956        20.20752         0.99379
C         46.40904        20.91452         0.97123
C         47.61873        23.08282         0.93602
C         46.40112        22.34968         0.97496
C         47.60868        24.53411         0.88562
C         46.41035        25.24298         1.00788
C         47.66359        27.39802         0.89611
C         46.38928        26.69170         1.00917
C         47.66244        28.84888         0.90425
C         46.47420        29.57644         1.02051
C         47.67135        31.71515         0.98189
C         46.48292        31.02268         0.99726
C         47.71645        33.19203         1.05033
C         46.41494        33.95948         0.89372
C         47.70844        36.03410         0.41749
C         46.47954        35.36009         0.44677
C         47.73484        37.44789         0.13364
C         46.51396        38.13952        -0.13893
C         47.76033        40.26836        -0.28998
C         46.52434        39.54870        -0.35338
C         47.77951        41.69756        -0.40359
C         46.56078        42.43748        -0.62044
C         47.73696        44.61050        -0.41523
C         46.50888        43.83157        -0.65969
C         47.76454        46.07041        -0.71217
C         46.48810        46.75799        -0.63542
C         47.67840        48.96637        -0.92957
C         46.46264        48.19769        -0.60105
C         47.73452        50.40196        -0.65575
C         46.49226        51.09430        -0.43067
C         47.70504        53.28641        -0.71380
C         46.46894        52.49800        -0.34263
C         47.69395        54.64516        -0.05926
C         46.53245        55.26539         0.24500
C         50.11462        20.27377         0.77015
C         48.87188        20.94152         0.87682
C         50.07599        23.09420         0.71380
C         48.84837        22.37147         0.84028
C         50.07186        24.52664         0.78187
C         48.87276        25.23973         0.80721
C         50.14247        27.39283         0.75280
C         48.86580        26.69002         0.81548
C         50.12863        28.84634         0.77084
C         48.94062        29.53643         0.85631
C         50.19188        31.74197         0.72848
C         48.97513        31.00073         1.23609
C         50.17342        33.15581         0.56051
C         48.95920        33.89517         0.70161
C         50.19764        35.97565         0.38324
C         48.95351        35.29104         0.53025
C         50.19816        37.44106         0.44395
C         48.95192        38.16991         0.16102
C         50.25276        40.26933        -0.17758
C         48.98572        39.56581        -0.07838
C         50.25297        41.69022        -0.35028
C         49.01860        42.37349        -0.38299
C         50.26535        44.52094        -0.78074
C         49.01827        43.84340        -0.34933
C         50.24534        46.01389        -0.92041
C         48.96062        46.74245        -0.78981
C         50.23870        48.94056        -0.67980
C         49.01661        48.20306        -1.00311
C         50.23740        50.33878        -0.60309
C         48.97883        51.07752        -0.63908
C         50.21302        53.17121        -0.45715
C         48.99595        52.50723        -0.54887
C         51.28531        20.97728         0.55429
C         52.50013        23.11702         0.15298
C         51.28571        22.38667         0.49447
C         52.56632        24.51115         0.36757
C         51.39280        25.21054         1.04446
C         52.63949        27.40454         0.81434
C         51.34086        26.69963         0.79691
C         52.66204        28.85745         0.57447
C         51.42564        29.59750         1.01610
C         52.57225        31.70604         0.18486
C         51.38184        31.03604         0.55851
C         52.60004        33.10886         0.11029
C         51.39681        33.84803         0.31048
C         52.65752        35.97605        -0.00858
C         51.41264        35.27772         0.27719
C         52.68921        37.35193        -0.16244
C         51.52696        38.16175         0.19364
C         52.72914        40.25888        -0.38533
C         51.48067        39.58601        -0.16333
C         52.74463        41.70639        -0.46162
C         51.51099        42.40633        -0.42478
C         52.73456        44.54742        -0.63686
C         51.53301        43.81743        -0.56419
C         52.69938        45.99953        -0.67596
C         51.51962        46.71343        -0.71648
C         52.76132        48.91846        -0.29614
C         51.46746        48.16454        -0.40890
C         52.75685        50.39117        -0.39198
C         51.48430        51.07712        -0.44650
C         51.42900        52.47380        -0.39423
C         54.77437        23.13661        -0.71876
C         53.60485        22.45556        -0.42571
C         54.89937        24.51185        -0.42892
C         53.77012        25.18873         0.10238
C         55.05091        27.36815        -0.05937
C         53.88570        26.62203         0.43779
C         55.03903        28.76707        -0.07725
C         53.80195        29.49163         0.16780
C         55.07383        31.65359        -0.15505
C         53.76245        30.92366        -0.30604
C         55.09010        33.05794        -0.13751
C         53.85592        33.81222        -0.09096
C         55.13880        35.91313        -0.26706
C         53.87991        35.20528        -0.16583
C         55.17111        37.31466        -0.43612
C         53.88154        38.03057        -0.79306
C         55.14819        40.24152        -0.82509
C         53.90580        39.52623        -0.55823
C         55.21833        41.70198        -0.66968
C         53.96663        42.42758        -0.59488
C         55.22923        44.57380        -0.64311
C         53.97286        43.84513        -0.62003
C         55.24766        45.94188        -0.59186
C         53.99763        46.71035        -0.74169
C         55.30111        48.90567        -0.31703
C         54.03467        48.20243        -0.63839
C         55.21526        50.29698        -0.18301
C         54.00293        51.01393        -0.32067
C         57.34544        24.54406        -0.98809
C         56.15933        25.22293        -0.63360
C         57.42505        27.34669        -0.69255
C         56.20727        26.63784        -0.47407
C         57.46321        28.76997        -0.55550
C         56.25665        29.48728        -0.32488
C         57.53917        31.60498        -0.29612
C         56.28315        30.91801        -0.25764
C         57.56533        33.02907        -0.20512
C         56.34266        33.75639        -0.15292
C         57.61133        35.87582        -0.20820
C         56.36206        35.18191        -0.18947
C         57.62095        37.28937        -0.33245
C         56.41228        37.98838        -0.46364
C         57.64559        40.20798        -0.31407
C         56.47612        39.45058        -0.73302
C         57.66286        41.60568        -0.39652
C         56.44715        42.34411        -0.66095
C         57.71076        44.51672        -0.28425
C         56.52450        43.83097        -0.92287
C         57.72025        45.90292        -0.20176
C         56.55079        46.70657        -0.73635
C         57.69372        48.72908         0.23791
C         56.50652        48.14377        -0.22146
C         58.54421        25.22258        -1.16174
C         59.83987        27.34267        -1.15330
C         58.61093        26.62565        -1.01109
C         59.88927        28.69998        -0.96115
C         58.71406        29.45874        -0.65751
C         59.98958        31.59550        -0.41987
C         58.75530        30.87272        -0.45794
C         60.02265        32.95587        -0.26427
C         58.81975        33.72986        -0.18520
C         60.07137        35.89726         0.00288
C         58.83965        35.14401        -0.13097
C         60.11266        37.24532        -0.07899
C         58.91495        38.06706        -0.46809
C         60.04509        40.21065         0.36248
C         58.77831        39.41045         0.30180
C         60.05602        41.55817         0.23280
C         58.86668        42.33036        -0.04384
C         60.01797        44.45447         0.55690
C         58.87087        43.74592         0.07115
C         60.01590        45.82024         0.67576
C         58.87212        46.58722         0.30371
C         58.85562        47.98780         0.46305
O         40.54713        28.17533        -1.33767
O         44.06769        47.27287         1.09898
O         47.02492        33.74702         2.23758
O         25.14061        29.17068         0.96936
O         53.56850        26.91747         1.85673
O         48.30714        48.61840        -2.21149
O         40.89418        37.96775         0.87497
O         41.38849        47.64628        -1.66851
O         43.58089        26.06021         2.48882
O         26.99032        29.23472        -2.35819
O         28.24498        44.55105        -1.17518
O         42.14757        39.51418        -2.31415
O         26.36405        45.57154         2.74870
O         37.44702        35.53548        -2.42778
O         34.33243        29.22734         0.96547
O         28.32930        41.91837        -1.69888
O         42.01277        42.14079        -2.51039
O         52.09473        48.43267         0.91953
O         31.63063        34.53124        -2.75349
O         36.26073        52.52333         2.64545
O         48.40651        44.35496         0.88940
O         40.69786        33.82630         1.36965
O         44.95446        42.05940        -2.37728
O         54.05057        47.58706        -1.97685
O         55.88088        39.78342        -2.02768
O         51.00361        37.94836         1.55877
O         41.61907        21.56213        -0.91601
O         31.62764        46.94567         2.19028
O         50.20643        45.13276        -2.11524
O         38.85932        30.18177         1.41929
O         45.08556        29.03772         2.85913
H         44.98713        30.00644         3.04606
O         33.23329        28.66804        -2.46215
H         32.49427        28.22928        -2.93432
O         30.41364        48.85416        -0.63962
H         29.59933        49.33617        -0.89709
O         53.74385        37.88177        -2.25178
H         54.47576        38.41531        -2.64612
O         56.72295        43.95788        -2.36888
H         56.81242        44.92677        -2.56066
O         59.08596        38.44085        -1.86277
H         59.11859        37.62049        -2.39723
O         47.59691        53.53717        -2.16404
H         46.74705        54.00277        -2.31580
O         45.40505        24.33968         2.93591
H         44.97648        25.12936         3.34778
O         38.75726        25.73094         1.85983
H         38.72860        24.94202         2.44014
O         41.72464        34.81580        -1.95178
H         41.75639        35.63506        -2.49048
O         40.52292        48.94091         1.71673
H         40.54277        48.03777         2.09521
O         33.00165        49.77288         3.07534
H         33.86046        49.33869         3.26652
O         27.96099        26.88144        -2.72122
H         27.40088        27.53579        -3.20030
O         35.35378        40.42184        -2.77206
H         35.35164        39.50359        -3.14190
O         51.62642        25.06534         2.48789
H         52.41159        25.63141         2.69397
O         27.98426        40.12106         1.46721
H         27.95249        39.18769         1.76585
O         26.61215        35.26724        -2.92530
H         26.65693        36.20562        -3.20775
O         45.05972        31.86786         2.68320
H         45.74797        32.52806         2.95624
O         51.55565        29.66126         2.47457
H         50.77070        30.16282         2.81538
O         58.41402        39.04662         1.66664
H         58.42597        39.86142         2.21098
O         49.12475        31.00644         2.71220
H         48.34999        30.53324         3.08675
O         35.41977        37.52260        -3.02701
H         36.15532        36.92680        -3.31055
O         35.39919        22.82954        -1.95285
H         36.22851        23.26736        -2.24417
O         23.93902        31.52721         1.17276
H         24.51181        30.96282         1.74036
O         53.55405        30.80339        -1.76670
H         53.60882        31.70708        -2.14499
O         40.04206        50.18127        -1.68445
H         40.06870        51.08554        -2.06042
O         56.74854        46.80942        -2.19446
H         55.91593        47.21338        -2.54713
O         39.04436        26.09962        -1.74307
H         39.42856        26.83109        -2.27845
O         31.55901        25.38704         1.56234
H         32.33318        25.93513         1.81504
O         36.24861        48.38831        -1.56147
H         37.02706        48.07291        -2.06962
H         22.04040        26.82133        -0.06874
H         21.98132        29.27196         0.01060
H         22.12210        31.04033        -1.21736
H         22.13943        33.45553        -1.71871
H         21.99424        35.37566        -0.86090
H         21.97290        37.79802        -0.54877
H         21.97491        39.65954        -0.22302
H         21.98413        42.00614         0.38714
H         22.01283        43.85451         0.95847
H         22.07714        46.19362         1.66099
H         25.37282        23.43358        -0.31435
H         23.26650        24.69463        -0.09554
H         25.50133        49.45547         2.37326
H         23.40119        48.21689         2.33640
H         27.01239        22.49010        -0.75882
H         27.06871        50.51213         1.94618
H         29.11413        21.29129        -0.41065
H         29.11054        51.79793         1.85254
H         32.75742        19.23269         0.69552
H         30.65340        20.45589         0.50936
H         32.88506        53.96018         1.83898
H         30.76569        52.78863         1.70444
H         34.37507        18.23454         0.42720
H         34.46698        54.98997         1.26889
H         36.45754        17.03587         0.78400
H         36.53968        56.21388         1.05508
H         40.17626        14.94839         1.65214
H         38.05533        16.13515         1.29500
H         40.32032        58.41303         1.09821
H         38.20330        57.17424         1.25548
H         42.62837        14.93543         1.77573
H         42.76585        58.45854         0.81080
H         44.78574        16.10622         1.66355
H         44.89963        57.29346         0.47167
H         48.54881        18.22179         1.15306
H         46.45069        17.01281         1.32126
H         48.63681        55.19676         0.06127
H         46.56509        56.29077         0.64004
H         50.16062        19.17826         0.81827
H         50.24905        54.26841        -0.43692
H         52.22519        20.42069         0.44246
H         52.35594        53.05591        -0.30435
H         55.60972        22.58476        -1.16915
H         53.54666        21.38302        -0.65378
H         56.13111        50.88385        -0.02648
H         54.06884        52.11097        -0.32722
H         57.33889        23.45270        -1.11035
H         57.70455        49.79891         0.49120
H         59.45720        24.66469        -1.41488
H         60.75482        26.78565        -1.40196
H         60.85461        29.21315        -1.06575
H         60.94046        31.05243        -0.50239
H         60.99721        33.46129        -0.23748
H         61.00286        35.35261         0.21378
H         61.08133        37.75595         0.02303
H         60.98117        39.68982         0.61066
H         61.01545        42.08243         0.34345
H         60.91873        43.90203         0.85436
H         60.90325        46.34315         1.06093
H         59.75362        48.49223         0.84731
