         618
 CSIRO Nanostructure Databank - Neutral Graphene Oxide Data Set
C         23.13042        69.88889        -1.06030
C         23.05801        71.38802        -1.05925
C         22.09682        71.96120        -2.07968
C         23.11172        74.17451        -1.63094
C         22.12762        73.27414        -2.33551
C         25.46834        65.64867        -0.15766
C         25.47797        67.07087        -0.47119
C         24.31503        67.76190        -0.72594
C         25.58656        69.89449        -0.94783
C         24.31085        69.19534        -0.92119
C         25.60559        71.32994        -1.11585
C         24.40574        72.05619        -1.21577
C         25.64064        74.13747        -1.48246
C         24.43194        73.45642        -1.43462
C         27.84979        61.38960         0.72792
C         27.85286        62.81511         0.74559
C         26.52006        63.54989         0.74317
C         27.84484        65.74831         0.40468
C         26.57620        65.00087         0.29370
C         27.92295        67.10376        -0.18009
C         26.75147        67.77270        -0.49743
C         28.05492        69.85954        -0.87915
C         26.78355        69.18611        -0.79966
C         28.08272        71.29146        -1.12982
C         26.85326        72.01777        -1.18718
C         28.11748        74.11585        -1.33837
C         26.87675        73.44028        -1.34299
C         30.30904        57.09711         0.36414
C         30.25862        58.49121         0.43904
C         29.04513        59.21993         0.55340
C         30.30623        61.29633         1.05393
C         29.02791        60.61927         0.74455
C         30.31450        62.83682         1.04501
C         29.04887        63.51971         0.76905
C         30.39069        65.56763         0.06189
C         29.11418        64.99154         0.64895
C         30.37816        67.07606         0.03310
C         29.20632        67.76612        -0.25067
C         30.52931        69.80392        -0.85922
C         29.24678        69.16393        -0.64004
C         30.56343        71.18716        -1.49140
C         29.29935        71.96879        -1.25318
C         30.58321        74.07942        -1.17867
C         29.33603        73.40287        -1.27885
C         32.74250        52.74936         0.30759
C         32.69669        54.16086         0.31684
C         31.52525        54.92254         0.35879
C         32.77136        57.05094         0.39703
C         31.54280        56.36006         0.36183
C         32.83861        58.50112         0.24576
C         31.51996        59.25802         0.30535
C         32.79357        61.31972         0.94578
C         31.58293        60.64168         0.77995
C         32.77607        62.75988         1.03134
C         31.60838        63.50173         0.85043
C         32.87752        65.57915         0.52216
C         31.66126        64.91783         0.58028
C         32.92124        67.05127         0.31824
C         31.65299        67.80482         0.05507
C         33.02074        69.72073        -0.90797
C         31.69889        69.12516        -0.60946
C         33.07305        71.24242        -1.11299
C         31.80520        71.96205        -1.12549
C         33.05277        74.05328        -0.82982
C         31.80719        73.36665        -1.03513
C         35.20120        48.40437         0.69960
C         34.81130        49.64030         0.18140
C         33.84976        50.59632         0.57150
C         35.20253        52.66317        -0.04977
C         33.94306        51.98124         0.22572
C         35.19099        54.14570        -0.11405
C         33.99895        54.85015         0.43489
C         35.31268        57.08194         0.32568
C         34.04234        56.34507         0.54313
C         35.31667        58.49590         0.52000
C         34.08646        59.21381         0.59444
C         35.31470        61.26272         1.08520
C         34.07353        60.59912         0.86842
C         35.32353        62.71189         1.38159
C         34.03438        63.49360         1.25342
C         35.36199        65.49592         0.62747
C         34.12000        64.89948         0.81039
C         35.45457        66.81378        -0.05174
C         34.20324        67.61379        -0.20433
C         35.44677        69.77316        -0.38108
C         34.25830        69.07801        -0.45039
C         35.48609        71.21542        -0.52257
C         34.32477        71.93182        -0.77601
C         35.47656        74.09281        -0.40109
C         34.27585        73.38585        -0.68642
C         37.74082        44.22864         0.43545
C         37.73327        45.62657         0.36855
C         36.54208        46.37667         0.58882
C         37.69026        48.48622         0.05902
C         36.45710        47.76492         0.38192
C         37.76067        49.88448        -0.16355
C         36.60841        50.65632        -0.39697
C         37.70784        52.81837        -0.02909
C         36.46633        52.05656        -0.14872
C         37.73445        54.17745        -0.15739
C         36.47167        54.93742        -0.26475
C         37.73863        57.10571         0.07237
C         36.50792        56.39443         0.08658
C         37.78333        58.49152         0.38907
C         36.55874        59.19120         0.60158
C         37.81050        61.26787         1.08029
C         36.55615        60.58987         0.91233
C         37.79853        62.65897         1.66177
C         36.58609        63.44885         1.22868
C         37.83841        65.57005         1.00497
C         36.59143        64.79951         0.95111
C         37.91329        66.86650         0.59554
C         36.80416        67.52580        -0.22407
C         37.88298        69.82402         0.40595
C         36.65988        69.03402         0.10021
C         37.93582        71.29225         0.22090
C         36.81304        71.95633        -0.53879
C         37.86564        74.12800         0.12976
C         36.70564        73.43368        -0.22230
C         40.23322        39.89834         0.18190
C         40.14625        41.30284        -0.09201
C         38.96411        41.99913         0.01114
C         40.18729        44.24554        -0.25310
C         38.88704        43.47234        -0.07266
C         40.23805        45.66384         0.17718
C         38.97218        46.37067         0.21896
C         40.17667        48.51468         0.47702
C         38.93199        47.76653         0.20372
C         40.26951        49.93966         0.20502
C         39.05414        50.67062        -0.28912
C         40.21279        52.79032         0.50898
C         38.90655        52.00628         0.44777
C         40.22298        54.26803         0.24170
C         39.03288        54.88869        -0.47266
C         40.29079        57.14325        -0.10219
C         38.98457        56.41647        -0.32086
C         40.26498        58.53882         0.38050
C         39.04015        59.20631         0.53156
C         40.29171        61.29752         1.12365
C         39.03243        60.60353         0.91045
C         40.30241        62.73898         1.43421
C         39.08007        63.42829         1.51556
C         40.26710        65.65270         1.86068
C         38.93356        64.90974         1.82944
C         40.35278        67.05081         1.39885
C         39.19177        67.61850         0.68810
C         40.35373        69.89591         0.93171
C         39.19214        69.11682         0.48561
C         40.29748        71.30546         0.95926
C         39.06568        71.99135         0.56227
C         40.21491        74.16402         0.84452
C         39.08787        73.45937         0.48053
C         42.82095        36.08999         1.77512
C         42.76487        37.27294         1.03454
C         41.55480        37.97566         0.87522
C         42.67093        39.73376        -0.54630
C         41.46139        39.23137         0.23299
C         42.61606        41.28330        -0.85940
C         41.48886        42.00344        -0.08704
C         42.71479        44.09343         0.17190
C         41.49760        43.50419        -0.51158
C         42.72265        45.54792         0.51213
C         41.44839        46.30037         0.37888
C         42.76120        48.47429         0.40010
C         41.49892        47.74309         0.65316
C         42.73502        49.89057         0.33315
C         41.47902        50.62140         0.35025
C         42.70775        52.76788         0.39262
C         41.49524        52.05881         0.40750
C         42.70125        54.20821         0.35353
C         41.52976        54.95231         0.12271
C         42.74718        57.09785         0.23054
C         41.54229        56.37139         0.06664
C         42.73854        58.52084         0.41164
C         41.50601        59.21624         0.57903
C         42.80214        61.24809         1.20554
C         41.49290        60.59917         0.96754
C         42.83592        62.75101         1.49021
C         41.54024        63.43481         1.55432
C         42.86768        65.61146         1.81922
C         41.56695        64.86476         1.89038
C         42.82702        67.12189         1.74984
C         41.53137        67.77668         1.45558
C         42.75932        69.95152         1.29764
C         41.55520        69.20515         1.19260
C         42.71632        71.36784         1.29913
C         41.48407        72.03401         1.21614
C         42.70375        74.24438         1.33709
C         41.39816        73.51007         1.50751
C         45.31500        33.53938         2.96153
C         44.08975        34.17917         2.68205
C         45.29749        36.06093         1.66330
C         44.05625        35.42074         2.02493
C         45.29140        37.27600         0.96348
C         44.01201        37.72332         0.29556
C         45.19432        39.83498        -0.29050
C         43.99590        39.19590        -0.04337
C         45.17409        41.25143        -0.74644
C         43.91916        42.02222        -0.52255
C         45.24301        44.05784         0.05923
C         43.96212        43.32485        -0.11431
C         45.27944        45.56146         0.36464
C         44.01553        46.34143         0.76582
C         45.17390        48.46074        -0.03630
C         43.97120        47.76785         0.25400
C         45.16600        49.88987        -0.08989
C         43.95042        50.60199         0.15621
C         45.17764        52.70918         0.09284
C         43.95569        52.03626         0.23677
C         45.26768        54.13188         0.42032
C         43.95654        54.93785         0.53608
C         45.20504        57.08567         0.29101
C         43.98519        56.39358         0.31396
C         45.24060        58.50279         0.27379
C         43.99619        59.22952         0.43917
C         45.20760        61.42155         0.29480
C         44.01496        60.59879         0.70005
C         45.29338        62.82620         0.86217
C         44.07828        63.51475         1.22198
C         45.27221        65.67542         1.18785
C         44.09752        64.91562         1.38576
C         45.26327        67.10551         1.14211
C         44.05216        67.83693         1.34011
C         45.22173        69.95335         1.00030
C         44.02201        69.23222         1.27088
C         45.17033        71.37275         0.88199
C         44.01367        72.12105         1.53251
C         45.13496        74.46227         1.55770
C         43.92761        73.64785         1.34341
C         46.51829        34.13637         2.64179
C         47.75537        36.06627         1.74935
C         46.55764        35.43209         2.02095
C         47.80719        37.48666         1.27133
C         46.49221        37.97362         0.69207
C         47.72313        39.92637        -0.17914
C         46.46863        39.21544         0.02627
C         47.73432        41.29144        -0.47514
C         46.47167        41.99838        -0.75368
C         47.64950        44.14247        -0.47931
C         46.45790        43.44024        -0.47733
C         47.60956        45.58356        -0.44046
C         46.45672        46.30287        -0.15009
C         47.54071        48.47058        -0.72070
C         46.40662        47.75100        -0.30485
C         47.56508        49.90862        -0.74389
C         46.37117        50.60828        -0.38351
C         47.54365        52.77419        -0.65173
C         46.36820        52.03414        -0.31831
C         47.53713        54.22709        -0.54602
C         46.47070        54.86739         0.03757
C         47.76468        57.05860         0.27134
C         46.47073        56.32033         0.35767
C         47.72101        58.52445         0.08545
C         46.48857        59.21229         0.21296
C         47.70139        61.33626         0.26457
C         46.50520        60.65094         0.30882
C         47.80327        62.76161         0.74653
C         46.49198        63.50200         0.81388
C         47.64065        65.71289         0.35001
C         46.59680        64.96850         1.16211
C         47.60956        67.08785         0.31088
C         46.44030        67.81947         0.75989
C         47.60515        69.98280         0.37399
C         46.41115        69.23971         0.67279
C         47.58576        71.39851         0.34847
C         46.29207        71.99922         0.36758
C         47.69967        74.35006         1.30068
C         46.35236        74.11352         0.97097
C         48.95777        37.76594         0.28487
C         50.17441        39.93499        -0.14600
C         48.98823        39.24992        -0.01185
C         50.20952        41.35381        -0.38019
C         48.94887        42.04217        -0.51279
C         50.13558        44.19254        -0.73410
C         48.91295        43.44816        -0.63721
C         50.10186        45.57485        -0.94990
C         48.78709        46.24867        -1.01959
C         50.01617        48.45090        -1.45260
C         48.72641        47.73105        -1.19362
C         49.97805        49.94257        -1.57266
C         48.73233        50.65411        -1.11540
C         49.92148        52.82832        -1.45023
C         48.70587        52.06163        -1.05173
C         49.91144        54.32379        -1.47149
C         48.65703        55.10850        -1.10218
C         50.14397        57.10210        -0.58747
C         49.00244        56.23925        -0.09829
C         50.11403        58.51542        -0.50606
C         48.92084        59.22712        -0.19186
C         50.07498        61.42179        -0.35261
C         48.91995        60.66783        -0.10185
C         50.06058        62.86231        -0.32249
C         48.90026        63.52732         0.05189
C         50.00279        65.69767        -0.75851
C         48.75405        64.95015        -0.24450
C         49.97615        67.19802        -0.75998
C         48.74483        67.87512        -0.24193
C         50.01512        70.02976         0.03748
C         48.82513        69.31471         0.10893
C         50.02643        71.44752         0.26584
C         48.79581        72.16868         0.40169
C         50.08889        74.15951         1.02229
C         48.82715        73.57002         0.83632
C         51.40173        42.08285        -0.43175
C         52.58662        44.24850        -0.63750
C         51.40323        43.49538        -0.61736
C         52.57897        45.66176        -0.77056
C         51.30799        46.36009        -0.97899
C         52.47869        48.55137        -0.72173
C         51.28665        47.73871        -1.18091
C         52.55951        49.97126        -1.23224
C         51.31380        50.69540        -1.73314
C         52.51816        52.83896        -1.10718
C         51.22697        52.11505        -1.21316
C         52.57811        54.29414        -1.40107
C         51.22676        55.07355        -1.49002
C         52.61659        57.11919        -0.77190
C         51.28513        56.46384        -1.07443
C         52.61117        58.60592        -1.00569
C         51.29299        59.26007        -0.98989
C         52.55983        61.46901        -0.76397
C         51.27821        60.77239        -0.88093
C         52.52973        62.87482        -0.61709
C         51.28510        63.59061        -0.60596
C         52.51809        65.72677        -0.59197
C         51.29302        64.99656        -0.66285
C         52.53871        67.16596        -0.58816
C         51.28638        67.98601        -0.88160
C         52.54629        70.03260        -0.20452
C         51.29674        69.22168         0.05110
C         52.52447        71.45102         0.05540
C         51.29067        72.12263         0.35204
C         52.55412        74.16718         0.89322
C         51.31674        73.50008         0.73941
C         53.77630        46.39145        -0.75868
C         54.98686        48.52001        -0.78405
C         53.79702        47.81030        -0.80806
C         55.03245        49.95397        -0.93359
C         53.75633        50.64600        -1.18555
C         54.98350        52.78989        -1.07403
C         53.80873        52.10591        -1.22069
C         54.97624        54.23551        -0.73831
C         53.79145        54.99677        -1.11009
C         55.08856        57.16487        -0.96826
C         53.83640        56.46201        -1.42752
C         55.07296        58.57811        -0.97735
C         53.79220        59.30147        -1.06836
C         55.00409        61.43204        -0.74586
C         53.80203        60.75989        -0.91024
C         55.00842        62.83134        -0.18911
C         53.74806        63.59850        -0.50763
C         55.02139        65.69292        -0.27439
C         53.73704        64.98958        -0.47036
C         55.01534        67.18639        -0.25912
C         53.72120        67.87943        -0.44623
C         54.99809        70.03600        -0.64305
C         53.71987        69.32924        -0.43501
C         54.98829        71.55746        -0.32931
C         53.73561        72.17100         0.10995
C         55.02908        74.17052         0.74397
C         53.77653        73.52155         0.59213
C         56.22166        50.64710        -0.93153
C         57.52316        52.85993        -0.90591
C         56.29765        52.09825        -1.35344
C         57.54893        54.24078        -0.66921
C         56.25910        54.97930        -0.52053
C         57.46495        57.16914        -0.44339
C         56.26975        56.46458        -0.67369
C         57.48558        58.57882        -0.57573
C         56.28342        59.27872        -0.83083
C         57.52379        61.46917        -0.59201
C         56.30138        60.76138        -1.12231
C         57.51431        62.83408        -0.45452
C         56.27596        63.59267        -0.49906
C         57.54332        65.70375        -0.89650
C         56.27790        64.95494        -0.54566
C         57.50605        67.19394        -0.60324
C         56.29374        67.90386        -0.49132
C         57.51130        70.01967        -0.49631
C         56.28917        69.31230        -0.53538
C         57.50056        71.51027        -0.41093
C         56.25977        72.20796        -0.04545
C         57.51273        74.19138         0.73253
C         56.26904        73.52578         0.47076
C         58.72379        54.98389        -0.48917
C         59.95702        57.17594        -0.22344
C         58.68747        56.40729         0.02050
C         59.97579        58.55503        -0.34242
C         58.73441        59.31220        -0.43607
C         59.99461        61.43122        -0.30594
C         58.74642        60.70494        -0.42002
C         60.01015        62.81979        -0.21358
C         58.72991        63.56884         0.06353
C         59.97976        65.68119        -0.40115
C         58.78000        65.02057        -0.34546
C         60.00705        67.12218        -0.89893
C         58.72642        67.89396        -0.60440
C         59.98547        69.95541         0.04453
C         58.72458        69.30042        -0.46540
C         60.05326        71.46578        -0.00462
C         58.80219        72.24397        -0.12112
C         59.96935        74.17872         0.91576
C         58.75056        73.57988         0.52196
C         61.21038        59.28667        -0.39168
C         62.46261        61.41140        -0.40107
C         61.23850        60.68356        -0.37320
C         62.48503        62.81041        -0.40454
C         61.23661        63.55528        -0.30578
C         62.48179        65.67349        -0.81629
C         61.22820        64.95383        -0.35727
C         62.50908        67.13741        -0.45028
C         61.26889        67.86222        -0.48517
C         62.52956        69.95830        -0.21168
C         61.25543        69.23062        -0.31288
C         62.51696        71.44337         0.15368
C         61.20937        72.12070         0.32398
C         62.41163        74.07417         1.23670
C         61.20816        73.50447         0.78844
C         63.71295        63.52595        -0.40258
C         64.93140        65.61985        -0.17743
C         63.74545        64.92680        -0.44558
C         64.95410        67.03024        -0.00573
C         63.71176        67.77573        -0.12840
C         64.91654        69.85448         0.47391
C         63.75168        69.19565         0.06607
C         64.89788        71.25428         0.84371
C         63.70743        72.00741         0.78503
C         64.82310        73.93998         1.77946
C         63.64713        73.35115         1.28260
C         66.13054        67.70329         0.34059
C         67.30422        69.73915         1.07525
C         66.14247        69.09829         0.62671
C         67.29568        71.11023         1.45851
C         66.07855        71.85895         1.37169
C         67.23715        73.80930         2.31434
C         66.04293        73.21762         1.82002
C         68.45882        71.74429         1.95431
C         68.42041        73.07907         2.36859
O         39.53649        68.22636        -0.61575
O         35.53087        50.02060        -0.98648
O         35.62276        54.65405        -1.43061
O         45.82749        41.55143        -2.02134
O         40.73465        48.17141         1.80845
O         34.17347        55.46514         1.75073
O         28.49720        65.70247         1.75317
O         32.19783        59.03007        -0.97770
O         33.16963        70.28940        -2.25692
O         40.07362        53.77269         1.61346
O         42.62422        39.01770        -1.77587
O         39.66543        57.05575        -1.45922
O         42.99261        61.75368         2.58144
O         51.04490        60.09052        -2.17568
O         60.04686        66.97817        -2.32698
O         30.27511        62.05915         2.29214
O         44.71489        54.50410         1.71871
O         40.89067        65.29126         3.13594
O         51.97316        54.72309        -2.69349
O         43.04608        66.43198         3.02381
O         32.33544        67.82369         1.41240
O         51.76374        52.42110         0.10311
O         49.74366        53.55360        -2.70862
O         54.95362        71.00693        -1.70680
O         36.96145        69.38071         1.49398
O         39.29949        44.04158        -1.39219
O         62.72214        71.00671        -1.23437
O         34.70374        66.80976        -1.33960
O         49.83129        49.11161        -2.77684
O         46.18259        73.27671        -0.15456
O         45.55654        44.58117         1.41438
O         47.24413        56.64467         1.58677
O         55.06450        66.42279         1.02003
O         49.03513        65.16018        -1.68751
O         48.97510        67.70219        -1.69931
O         48.44331        46.83699        -2.33394
O         55.50134        54.52492         0.65370
O         34.58682        63.16023         2.57669
O         42.53519        44.49067         1.55981
O         58.24887        72.19896        -1.47869
O         48.16089        55.73529        -2.30222
H         48.32516        55.11109        -3.04482
O         38.57603        51.64173         1.81020
H         38.83010        52.40088         2.38308
O         44.09697        46.53290         2.19853
H         44.19662        45.63429         2.58930
O         37.61373        62.44482         3.10426
H         37.62931        63.34912         3.51116
O         51.40426        68.42663        -2.24401
H         50.49394        68.45757        -2.62110
O         48.76693        37.02505        -0.92364
H         47.91674        37.30167        -1.32602
O         44.29038        71.98141         2.96762
H         43.52673        72.36912         3.44815
O         38.40139        64.99092         3.19855
H         39.19095        64.96207         3.79313
O         37.24106        71.88290        -1.94684
H         36.55767        72.33317        -2.48771
O         56.42086        52.06064        -2.83054
H         55.67653        51.52113        -3.17499
O         62.37806        65.63677        -2.27581
H         61.53022        66.13715        -2.50954
O         44.93987        61.67456        -1.14516
H         45.04215        60.82347        -1.62323
O         30.62587        70.97861        -2.94966
H         31.52833        70.61591        -3.13324
O         41.89554        41.91520         1.30712
H         41.46832        42.63105         1.82459
O         53.78949        56.65628        -2.86326
H         53.07766        56.06610        -3.21829
O         51.39431        68.67625         1.40425
H         51.44613        69.42632         2.03319
O         58.58417        63.57882         1.53410
H         58.53191        62.64464         1.82980
O         30.32647        65.13745        -1.35016
H         31.12587        65.47189        -1.81028
O         22.53686        71.77591         0.26051
H         23.12856        71.38280         0.93635
O         52.79996        56.91410         0.66337
H         51.95613        57.11071         1.12362
O         41.12307        73.59752         2.96480
H         40.23335        73.21147         3.11575
O         52.21671        48.72016         0.72932
H         52.97903        49.20997         1.10849
O         39.24917        50.98126        -1.69402
H         39.21771        50.14952        -2.21055
O         54.99713        62.66027         1.27825
H         55.06788        63.55583         1.67557
O         37.18847        67.41513        -1.60513
H         36.36273        67.28405        -2.12789
O         58.55943        56.27193         1.49064
H         57.69550        55.83882         1.66778
O         41.77525        43.70933        -1.90339
H         41.03703        43.32622        -2.42533
O         42.39880        41.39970        -2.26209
H         42.52931        40.47438        -2.62151
O         23.29015        75.40227        -2.33753
H         23.60599        75.19656        -3.24061
O         57.70178        65.61498        -2.34526
H         58.55670        66.10882        -2.56341
O         44.01466        36.99321        -0.96991
H         43.43617        37.54684        -1.57866
O         48.25090        62.62866         2.14682
H         48.06415        63.50071         2.58373
O         47.10331        65.03870         2.57825
H         46.32492        64.93096         3.16860
O         51.53939        50.88818        -3.15472
H         51.09110        50.13958        -3.61894
O         48.11045        38.30831         2.44869
H         47.40422        38.15342         3.11060
O         49.50623        55.59286         1.09129
H         48.80198        55.68238         1.78196
O         59.85877        69.72183         1.51849
H         60.68464        70.03618         1.94599
O         39.26547        54.58919        -1.87424
H         39.47146        55.44253        -2.32646
O         25.54264        62.83087        -0.01304
H         25.80868        62.84267        -0.95499
O         56.38363        60.88195        -2.58684
H         55.66562        60.33794        -2.97603
H         22.69415        74.44000        -0.62189
H         25.64481        75.22619        -1.63990
H         28.13587        75.21476        -1.38622
H         30.59736        75.17896        -1.16193
H         33.03762        75.15099        -0.76100
H         35.42787        75.18329        -0.26015
H         37.82343        75.22378         0.23029
H         40.18763        75.26486         0.82155
H         42.64555        75.34471         1.33520
H         45.07110        75.30704         2.26147
H         47.93182        75.16877         1.99966
H         50.13499        75.19603         1.38902
H         52.56514        75.21132         1.23789
H         55.04548        75.20908         1.10563
H         57.48123        75.20166         1.16615
H         59.95000        75.18279         1.36537
H         62.39956        75.10750         1.61503
H         64.80230        74.98211         2.13132
H         67.21646        74.85399         2.65632
H         22.17728        69.33855        -1.02595
H         21.37580        71.29423        -2.57501
H         21.42872        73.73323        -3.05076
H         24.51604        65.10289        -0.24129
H         23.34952        67.23439        -0.71528
H         26.88203        60.88152         0.60125
H         26.15456        63.54678         1.80861
H         29.36745        56.52896         0.39668
H         28.09054        58.67786         0.47590
H         31.79349        52.20007         0.40391
H         30.55076        54.41277         0.33226
H         34.53532        47.87940         1.40057
H         32.98671        50.27863         1.17550
H         36.83304        43.68932         0.74533
H         35.62368        45.82751         0.84494
H         39.31622        39.36356         0.48165
H         38.02732        41.44908         0.19388
H         41.89673        35.67333         2.20672
H         40.65412        37.57514         1.37245
H         45.30637        32.55564         3.45167
H         43.14552        33.69188         2.96545
H         47.46715        33.63377         2.87937
H         48.70477        35.57447         2.01133
H         49.92905        37.43820         0.72943
H         51.12838        39.39711        -0.03581
H         52.36307        41.56173        -0.31027
H         53.55295        43.73637        -0.51567
H         54.73438        45.84991        -0.72927
H         55.93919        47.97246        -0.70900
H         57.16409        50.09530        -0.78999
H         58.48318        52.32307        -0.96476
H         59.69806        54.47495        -0.55617
H         60.91066        56.62826        -0.16673
H         62.15811        58.72708        -0.40789
H         63.41221        60.85659        -0.44939
H         64.65440        62.96739        -0.27955
H         65.85748        65.04986        -0.00157
H         67.06819        67.13439         0.43469
H         68.23649        69.16281         1.17364
H         69.39750        71.17538         2.01662
H         69.33505        73.55363         2.75090
