         349
 CSIRO Nanostructure Databank - Neutral Graphene Oxide Data Set
C          1.50133         2.61258        -0.08149
C          1.56498         3.98258         0.34893
C          2.59438         1.79297        -0.01800
C          2.67469         4.48745         0.96575
C          1.67265         6.49740         2.19336
C          1.74460         7.77551         2.62773
C          2.76002         5.96608         1.29421
C          2.93934         8.59216         2.43486
C          1.70899        10.71662         2.54257
C          1.67538        12.07138         2.40719
C          2.93945         9.96857         2.46111
C          2.85202        12.84197         2.06933
C          1.60331        15.01984         2.08867
C          1.56935        16.44737         1.97708
C          2.75060        14.27630         1.87796
C          2.64104        17.15879         1.47033
C          2.68532        18.57898         1.28922
C          3.84188         2.27324         0.51510
C          3.83470         3.59781         1.16486
C          5.02334         1.56623         0.39249
C          5.21023         4.23140         1.44529
C          4.12229         6.44466         1.75378
C          4.24389         7.82858         2.37672
C          5.25241         5.70692         1.59796
C          5.36999         8.63851         1.76884
C          4.23673        10.76561         2.47679
C          4.08255        12.18701         1.91787
C          5.38727         9.98821         1.85317
C          5.22566        12.89854         1.39025
C          4.03376        15.04829         1.67799
C          3.79384        16.36333         0.98127
C          5.18330        14.25328         1.11649
C          4.96792        17.05979         0.38267
C          3.81231        19.22586         0.83466
C          5.01625        18.53534         0.45647
C          6.31776         2.15642         0.62605
C          6.41255         3.49024         1.07060
C          7.48321         1.43000         0.20502
C          7.72284         4.16700         1.12091
C          6.56043         6.41604         1.56592
C          6.47901         7.85911         1.09601
C          7.80725         5.66425         1.22462
C          7.84206         8.51752         1.15718
C          6.62716        10.75137         1.55832
C          6.53364        12.20823         1.27136
C          7.88361        10.00727         1.20298
C          7.65523        12.86322         0.55740
C          6.32033        14.96168         0.54005
C          6.23193        16.30862         0.23753
C          7.55029        14.22997         0.25537
C          7.31304        17.04788        -0.49696
C          6.23174        19.18409         0.31347
C          7.44073        18.49735        -0.04401
C          8.74573         2.02624         0.11234
C          8.90041         3.43112         0.56869
C          9.91509         1.36696        -0.31736
C          9.98853         4.18146        -0.15941
C          8.95536         6.37526         0.57456
C          8.97192         7.78374         0.54205
C         10.06949         5.66826         0.09381
C         10.04963         8.49933        -0.04378
C          8.96025        10.69450         0.45847
C          8.84509        12.13658         0.27177
C          9.98057         9.94996        -0.13042
C          9.97370        12.84794        -0.23135
C          8.68036        14.93260        -0.30277
C          8.61449        16.31295        -0.51833
C          9.90355        14.20212        -0.52938
C          9.77086        17.09707        -0.97831
C          8.65851        19.14775        -0.09379
C          9.86959        18.50993        -0.54622
C         11.20015         1.99722        -0.30015
C         11.31556         3.47167         0.08471
C         12.36135         1.31138        -0.56855
C         12.42251         4.19699        -0.64546
C         11.20063         6.36004        -0.41249
C         11.16667         7.76605        -0.54111
C         12.39662         5.57720        -0.80103
C         12.14642         8.41324        -1.50283
C         10.98293        10.71748        -0.99147
C         11.25589        12.03625        -0.22604
C         12.26730         9.94698        -1.37181
C         12.49460        12.81923        -0.66393
C         11.04256        14.87966        -1.20876
C         11.03302        16.37301        -1.34629
C         12.36167        14.18152        -1.25996
C         12.30523        17.09507        -1.24247
C         11.09666        19.14188        -0.58510
C         12.32358        18.45734        -0.94264
C         13.67310         2.03698        -0.46945
C         13.56025         3.38241        -1.20239
C         14.88504         1.27206        -0.92017
C         14.86581         4.13324        -1.23940
C         13.57782         6.25885        -1.25098
C         13.50724         7.69855        -1.57710
C         14.83135         5.56684        -1.35417
C         14.81748         8.45516        -1.60880
C         13.60459        10.64161        -1.39106
C         13.72715        12.08976        -1.05767
C         14.88907         9.92336        -1.50545
C         14.87065        12.80316        -1.67776
C         13.61340        14.92066        -1.51975
C         13.54708        16.41354        -1.76204
C         14.80608        14.25736        -1.72622
C         14.82859        17.00497        -1.17888
C         13.58131        19.16262        -0.89573
C         14.80556        18.51255        -1.02767
C         16.05424         1.95556        -1.18418
C         16.06433         3.42174        -1.26964
C         17.29713         1.25612        -1.31007
C         17.31735         4.10779        -1.40387
C         16.06540         6.25433        -1.47701
C         16.07951         7.72109        -1.34058
C         17.31882         5.55612        -1.51412
C         17.35737         8.49668        -1.51624
C         16.05528        10.63039        -1.77592
C         16.00070        12.07855        -1.99078
C         17.33894         9.94648        -1.85069
C         17.19204        12.78886        -2.52026
C         16.01689        14.98381        -2.10789
C         16.06093        16.51734        -1.99299
C         17.07655        14.27137        -2.58865
C         17.28408        17.00741        -1.21353
C         16.05099        19.16375        -0.86255
C         17.28196        18.46992        -0.89582
C         18.50753         1.93547        -1.40115
C         18.52780         3.38248        -1.45321
C         19.75045         1.21772        -1.38736
C         19.79124         4.05228        -1.54535
C         18.52504         6.24395        -1.70106
C         18.52929         7.69525        -1.96998
C         19.84470         5.56737        -1.45814
C         19.79963         8.44364        -2.28279
C         18.53864        10.61800        -2.04789
C         18.53936        12.07258        -2.41427
C         19.81107         9.90487        -2.05373
C         19.88660        12.82643        -2.31562
C         19.07651        15.35450        -2.32297
C         18.59449        16.32010        -1.24276
C         19.86067        14.22340        -1.70009
C         19.86776        17.01306        -0.77346
C         18.50765        19.15227        -0.86301
C         19.77454        18.50820        -0.99809
C         20.95342         1.88206        -1.42629
C         20.96761         3.31314        -1.52429
C         22.26369         1.11930        -1.42594
C         22.28925         3.98062        -1.64899
C         21.05275         6.19933        -2.15820
C         21.11373         7.69583        -2.34836
C         22.33244         5.43579        -1.94864
C         22.36817         8.45782        -2.05852
C         21.02576        10.54586        -1.89317
C         20.96594        12.00190        -1.61723
C         22.29757         9.82450        -1.80658
C         22.24520        12.73051        -1.27669
C         21.08274        14.85917        -1.38804
C         20.94299        16.33794        -1.67296
C         22.29724        14.18840        -1.40399
C         22.25381        17.07821        -1.69631
C         20.93273        19.19665        -1.28112
C         22.20258        18.52387        -1.45909
C         23.41643         1.90562        -0.83362
C         23.45988         3.31926        -1.01420
C         24.45916         1.26736        -0.18668
C         24.56217         4.06359        -0.59522
C         23.58828         6.20651        -1.66054
C         23.64028         7.69802        -1.84339
C         24.54368         5.55120        -0.70589
C         24.86335         8.44076        -1.34901
C         23.50698        10.61009        -1.51959
C         23.49113        11.96686        -1.35003
C         24.83012         9.94368        -1.35081
C         24.80454        12.73137        -1.41654
C         23.53531        14.89876        -1.88171
C         23.45022        16.39783        -1.65774
C         24.70004        14.22222        -1.21450
C         24.73927        17.11720        -1.51956
C         23.35879        19.24834        -1.29588
C         24.67803        18.61809        -1.34410
C         25.57599         2.00257         0.30875
C         25.63619         3.41918         0.09659
C         26.62965         1.36194         0.99828
C         26.76451         4.14576         0.56831
C         25.70899         6.34165        -0.20217
C         25.88795         7.77359        -0.52710
C         26.90830         5.57601         0.23334
C         26.89895         8.50673         0.13319
C         25.85089        10.66385        -0.54574
C         25.82014        12.06217        -0.53663
C         26.87478         9.95897         0.13314
C         26.81597        12.81991         0.12606
C         25.76510        14.92303        -0.65864
C         26.00036        16.37533        -1.04441
C         26.81943        14.24379         0.01066
C         26.82328        17.13214        -0.00191
C         25.75449        19.28960        -0.59477
C         26.71350        18.59340         0.08589
C         27.71504         2.08773         1.50459
C         27.79271         3.50465         1.28448
C         28.75224         1.43662         2.25886
C         28.87240         4.26147         1.88118
C         28.04490         6.37732         0.83490
C         27.91457         7.84363         0.89952
C         28.94916         5.67456         1.75793
C         28.85150         8.56982         1.67868
C         27.84291        10.70155         0.87951
C         27.83490        12.12494         0.85114
C         28.82027        10.00672         1.67267
C         28.79624        12.88384         1.61474
C         28.05936        14.99764         0.42397
C         27.81244        16.47562         0.66774
C         28.81909        14.30574         1.54262
C         28.95808        17.23308         1.31177
C         27.61227        19.30161         0.97184
C         28.61592        18.66608         1.64228
C         29.76044         2.15730         2.83452
C         29.82309         3.58480         2.69610
C         30.80480         4.33986         3.38134
C         29.87794         6.42441         2.51225
C         29.84406         7.88080         2.45643
C         30.81422         5.72049         3.31674
C         30.75921         8.64943         3.20238
C         29.73984        10.74293         2.46413
C         29.69433        12.19177         2.47498
C         30.70505        10.03389         3.21789
C         30.53629        12.94948         3.32101
C         29.63309        15.03708         2.43112
C         29.60427        16.49726         2.46907
C         30.47597        14.32687         3.32646
C         30.23932        17.21791         3.44686
C         29.40714        19.35674         2.62955
C         30.19700        18.65342         3.49031
O          3.90893        16.43677        -0.46314
O         12.78818        10.49392        -2.62535
O         24.50473         6.14758         0.65225
O         20.12911        16.21489        -2.93407
O         11.46156        14.17695        -2.43764
O          7.53390         6.14467         2.60227
O         14.18130         7.99738        -2.86140
O          8.25725         9.18681         2.37606
O          4.40807         3.60202         2.50727
O         21.03667         6.75715        -3.48365
O         25.04241        18.01118        -2.65020
O         24.10608         6.77016        -2.89420
O         17.67038        16.02327        -0.15420
O          8.75300         3.55890         2.00068
O         18.88225         8.05833        -3.35693
O         18.10912        14.94894        -3.26518
O         17.85959        12.22715        -3.70329
O         28.09126         5.86951        -0.56131
O         10.12400        16.86994        -2.40783
O         25.40793         9.23344        -2.47736
O         16.85306         8.19405        -0.17348
O         21.26322        12.30245        -0.23053
O          6.93298        11.72847         2.63150
O         13.56539        12.61812         0.31514
O         22.55451         4.45468        -3.02148
O         11.44906        11.64287         1.15416
H         12.33546        11.96229         1.44603
O         28.95390        14.95621        -0.75238
H         28.42418        15.32246        -1.50752
O         22.11476        -0.14293        -0.77468
H         21.87233         0.01786         0.15988
O         13.93191         2.34661         0.95056
H         14.07372         1.49574         1.41696
O         14.89528        16.45930         0.16068
H         15.80418        16.57274         0.51317
O          4.61926         7.59576         3.76589
H          5.50248         7.16731         3.78201
O         25.29205        12.57297        -2.78902
H         24.78024        13.20089        -3.35597
O         26.89434        16.27281        -2.19793
H         26.64604        17.01481        -2.80332
O          6.88238        17.10889        -1.90625
H          7.68304        17.26566        -2.45352
O          9.64136         4.04942        -1.56527
H         10.37472         4.42519        -2.09804
O         13.22138         3.05576        -2.58907
H         13.31222         3.87388        -3.12209
O         11.52145         8.21231        -2.80310
H         12.19353         8.50441        -3.46361
O         23.63646        14.68874        -3.33581
H         22.79560        14.98882        -3.74549
O         11.58946         3.58039         1.49738
H         12.49413         3.20632         1.64325
O          6.14874         7.81458        -0.32629
H          5.25845         7.41041        -0.42139
O          2.59264         6.65361        -0.00368
H          2.31429         7.57619         0.18313
O         10.31280        11.04146        -2.22323
H         10.42331        10.28249        -2.83635
O         16.11318        17.14541        -3.27352
H         15.24784        16.99128        -3.72094
O         20.11009        16.75299         0.61339
H         19.24763        16.48799         1.00803
O         13.50997        16.61706        -3.20796
H         12.66982        16.22696        -3.53739
O          4.48038        15.43634         3.02748
H          4.59005        14.61364         3.55113
O          4.58249        10.96207         3.87851
H          5.52176        11.26924         3.89043
O         20.16470         5.85870        -0.03728
H         19.40939         5.55267         0.51016
O         29.98917        17.29803         0.26860
H         29.98635        16.42010        -0.19141
O         20.35808        13.00246        -3.67129
H         19.56675        13.18478        -4.23143
H          0.56208         2.24322        -0.51594
H          0.69679         4.63269         0.16888
H          2.54694         0.76592        -0.40820
H          0.78154         5.88365         2.38885
H          0.89896         8.20356         3.18787
H          0.76794        10.17301         2.70975
H          0.71067        12.58816         2.49713
H          0.66718        14.52172         2.37915
H          0.65142        16.97466         2.27609
H          1.80650        19.17147         1.58514
H          4.99531         0.56123        -0.05575
H          3.81871        20.32554         0.79403
H          7.35502         0.38585        -0.11893
H          6.28309        20.27156         0.48238
H          9.85569         0.31023        -0.62315
H          8.71417        20.20542         0.20938
H         12.33644         0.24543        -0.84476
H         11.16598        20.19763        -0.28146
H         14.90857         0.17767        -0.79743
H         13.56491        20.24494        -0.69402
H         17.29421         0.15747        -1.25274
H         16.06664        20.25336        -0.70298
H         19.73390         0.11958        -1.32670
H         18.48911        20.25333        -0.82631
H         22.52760         0.89429        -2.49678
H         20.91906        20.29590        -1.34122
H         24.42595         0.17674        -0.04787
H         23.29840        20.30385        -0.99029
H         26.58482         0.27425         1.15687
H         25.69620        20.38267        -0.48080
H         28.70218         0.34583         2.38848
H         27.42207        20.37156         1.14923
H         30.53161         1.65364         3.43533
H         31.54679         3.81563         4.00064
H         31.57029         6.26778         3.89434
H         31.53757         8.15556         3.79804
H         31.44321        10.57575         3.82274
H         31.23604        12.45130         4.00423
H         31.13299        14.87535         4.01322
H         30.78444        16.71228         4.25615
H         29.30655        20.44844         2.71968
H         30.77053        19.17202         4.27111
