         404
 CSIRO Nanostructure Databank - Neutral Graphene Oxide Data Set
C          1.37194         1.88157        -0.32688
C          1.31353         3.24343        -0.53215
C          2.57627         1.22442         0.00654
C          2.42876         4.11082        -0.17370
C          1.21604         6.28980        -0.10981
C          1.26146         7.60760         0.16405
C          2.39478         5.55477        -0.69178
C          2.49547         8.37200         0.13241
C          1.22673        10.58042         0.01194
C          1.25909        11.92938        -0.15364
C          2.43063         9.82754         0.39274
C          2.47590        12.70247        -0.10807
C          1.25088        14.85365        -0.53067
C          1.25623        16.22387        -0.77407
C          2.45367        14.12739        -0.33484
C          2.45635        16.95292        -0.77143
C          2.49700        18.36686        -1.08955
C          3.79224         1.92437         0.06587
C          3.77252         3.39717         0.09250
C          5.03932         1.26819         0.04398
C          5.03397         4.11377        -0.11502
C          3.72690         6.31451        -0.49643
C          3.71072         7.74502        -0.07553
C          5.02217         5.57533        -0.30619
C          4.97588         8.45105         0.06464
C          3.74435        10.60090         0.37773
C          3.71758        12.03912         0.05204
C          4.99913         9.85031         0.19015
C          4.94883        12.72353        -0.06427
C          3.68803        14.84152        -0.35803
C          3.68466        16.26186        -0.51894
C          4.93642        14.14971        -0.23948
C          4.89941        16.98563        -0.45416
C          3.63871        19.08516        -0.98131
C          4.86988        18.48868        -0.35052
C          6.25705         1.98151         0.00243
C          6.23979         3.43643        -0.06083
C          7.49137         1.30893        -0.05167
C          7.49003         4.16650        -0.04035
C          6.25914         6.31919         0.01773
C          6.22888         7.73287         0.07756
C          7.47870         5.60826         0.05508
C          7.46215         8.45110         0.19688
C          6.22820        10.58279         0.18489
C          6.20962        12.02348         0.08751
C          7.46276         9.89105         0.22671
C          7.42272        12.72994         0.08389
C          6.14299        14.87555        -0.28466
C          6.12620        16.29314        -0.35360
C          7.46099        14.16051        -0.38789
C          7.36133        17.02623        -0.31706
C          6.16224        19.11979        -0.77399
C          7.35749        18.44062        -0.62002
C          8.71606         2.01393        -0.11068
C          8.70314         3.46355        -0.05100
C          9.93940         1.32763        -0.21117
C          9.94922         4.17261         0.00539
C          8.71099         6.33036         0.14896
C          8.68878         7.74388         0.20536
C          9.95629         5.59714         0.13642
C          9.95534         8.51026         0.22861
C          8.69037        10.63003         0.35117
C          8.66237        12.05367         0.30900
C          9.93829         9.96644         0.51866
C          9.87947        12.77948         0.48847
C          8.59742        14.96761         0.18177
C          8.56337        16.35081         0.04784
C          9.77951        14.24566         0.67641
C          9.75903        17.19323         0.31083
C          8.62628        19.10187        -0.79555
C          9.81215        18.51843        -0.37390
C         11.17682         2.01824        -0.23590
C         11.16996         3.45627        -0.08797
C         12.39906         1.33735        -0.38921
C         12.40574         4.15443        -0.05507
C         11.19100         6.27119         0.25568
C         11.23806         7.75305         0.31434
C         12.40589         5.56820         0.14389
C         12.44593         8.41306         0.92586
C         11.13521        10.67974         0.71466
C         11.11163        12.11586         0.68652
C         12.40201         9.95537         1.07548
C         12.35494        12.89308         0.76792
C         11.06437        15.03366         0.92484
C         11.03914        16.53532         0.74077
C         12.33017        14.28273         0.78446
C         12.32535        17.28369         0.50968
C         11.06110        19.15752        -0.57537
C         12.29408        18.57311        -0.23127
C         13.64021         2.02658        -0.41097
C         13.63486         3.45440        -0.22580
C         14.86741         1.34658        -0.59372
C         14.86027         4.17184        -0.22201
C         13.65276         6.27730         0.24421
C         13.68852         7.60954         0.74792
C         14.87507         5.58610         0.04788
C         14.94124         8.08830         1.14103
C         13.65626        10.76370         1.02662
C         13.63331        12.17158         0.76714
C         14.91184        10.20668         1.30656
C         14.87033        12.84217         0.69744
C         13.58775        15.06176         0.90173
C         13.62353        16.54206         0.59678
C         14.88122        14.31447         0.85117
C         14.82854        17.13602        -0.05456
C         13.50885        19.19838        -0.53595
C         14.77778        18.54223        -0.45175
C         16.09723         2.04439        -0.63406
C         16.07184         3.47248        -0.45303
C         17.34965         1.38185        -0.77242
C         17.28538         4.20393        -0.54109
C         16.11813         6.29233         0.11283
C         16.17866         7.63403         0.61967
C         17.30188         5.60830        -0.27158
C         17.40172         8.42797         0.66983
C         16.17045        10.71759         0.87455
C         16.12735        12.13735         0.62756
C         17.39237         9.92568         0.81331
C         17.33176        12.83770         0.37435
C         16.12376        15.09181         0.53636
C         16.01353        16.44120        -0.07994
C         17.36658        14.31125         0.30679
C         17.22103        17.02301        -0.69221
C         15.95627        19.24385        -0.70973
C         17.21905        18.56080        -0.95902
C         18.58133         2.08091        -0.84474
C         18.48797         3.53503        -0.88385
C         19.80918         1.37783        -0.65772
C         19.58333         4.36139        -1.19819
C         18.52215         6.32600        -0.23564
C         18.56356         7.66579         0.29273
C         19.69358         5.68475        -0.74880
C         19.90927         8.11108         0.48580
C         18.58191        10.73219         0.62498
C         18.54764        12.13445         0.30597
C         19.91104        10.22593         0.75027
C         19.76878        12.84852        -0.01402
C         18.55363        14.99288        -0.23529
C         18.53333        16.36305        -0.51823
C         19.76511        14.26346        -0.25002
C         19.74573        17.08220        -0.72226
C         18.51846        19.22677        -0.95079
C         19.73543        18.52538        -0.92577
C         21.10102         1.95153        -0.37060
C         21.40838         3.29757        -0.82719
C         22.05298         1.33483         0.42908
C         22.30517         4.14443        -0.23468
C         21.00447         6.35813        -0.79430
C         21.04114         7.69082        -0.18969
C         22.35049         5.57277        -0.59276
C         22.27591         8.45619        -0.07763
C         21.04658        10.77326         0.17278
C         20.99254        12.15782        -0.17333
C         22.17931         9.93336        -0.41125
C         22.22049        12.87618        -0.36002
C         20.98115        14.97896        -0.39753
C         20.97913        16.40180        -0.57506
C         22.21032        14.26271        -0.32564
C         22.22694        17.12405        -0.62861
C         20.98069        19.20864        -1.01046
C         22.22643        18.54447        -0.87194
C         23.17463         2.08774         1.12254
C         23.24268         3.59109         0.77842
C         24.52080         1.43052         0.93922
C         24.55215         4.30316         0.94112
C         23.57912         6.36167        -0.22254
C         23.50417         7.83084        -0.08584
C         24.76004         5.66224         0.35992
C         24.72090         8.55524         0.26350
C         23.52770        10.64688        -0.33903
C         23.51537        12.13590        -0.37136
C         24.71268         9.96037         0.23097
C         24.71110        12.85355         0.11643
C         23.43528        15.02967         0.08831
C         23.45153        16.46236        -0.39562
C         24.72141        14.30400        -0.28971
C         24.67627        17.15490        -0.41571
C         23.46776        19.23348        -0.90136
C         24.69874        18.57168        -0.66486
C         25.74329         2.11993         1.05944
C         25.79401         3.55469         1.18313
C         26.98042         1.42007         1.01810
C         27.01548         4.25960         1.26986
C         25.91095         6.44004         0.88636
C         25.87997         7.86387         0.74600
C         27.05743         5.73530         1.28182
C         27.00772         8.61612         1.18197
C         25.81161        10.72196         0.72631
C         25.76443        12.19138         0.67953
C         26.95384        10.04428         1.19425
C         26.87997        12.99637         1.26045
C         25.89603        15.10031         0.17705
C         25.90645        16.46978        -0.05411
C         26.99325        14.45724         0.89626
C         27.13738        17.19530         0.08044
C         25.94942        19.24771        -0.61865
C         27.15975        18.58898        -0.26747
C         28.21147         2.09657         1.11930
C         28.22096         3.51862         1.32178
C         29.41950         1.38002         0.83663
C         29.48888         4.23551         1.46206
C         28.28758         6.46120         1.53944
C         28.19123         7.90512         1.61861
C         29.52330         5.71633         1.49597
C         29.27815         8.73225         2.01726
C         28.04829        10.80320         1.92604
C         28.13406        12.30001         1.68712
C         29.38655        10.11342         1.76336
C         29.46365        12.99840         1.52186
C         28.30712        15.12434         0.83819
C         28.33617        16.50341         0.43389
C         29.48614        14.41317         1.05503
C         29.58375        17.18126         0.39671
C         28.41062        19.25546        -0.27326
C         29.61561        18.57716         0.02521
C         30.63953         2.03215         0.62654
C         30.76388         3.44764         1.03647
C         31.77004         1.39425         0.07582
C         31.88916         4.21368         0.48524
C         30.80893         6.29332         1.26379
C         31.07004         7.66924         1.58478
C         31.86392         5.61189         0.59822
C         31.91076         8.51952         0.91524
C         30.62018        10.76909         1.46660
C         30.68750        12.18076         1.33162
C         31.77080         9.99099         0.90887
C         31.91033        12.87941         1.05864
C         30.74834        15.07440         0.94221
C         30.78872        16.47695         0.67615
C         31.95741        14.32142         1.02984
C         32.05268        17.15537         0.65508
C         30.86808        19.21743        -0.07251
C         32.08499        18.55014         0.22671
C         32.95975         2.10722        -0.24782
C         32.97566         3.54693        -0.13060
C         34.11891         1.44632        -0.68978
C         34.14527         4.28513        -0.51705
C         32.92286         6.39744        -0.06460
C         32.92956         7.91656         0.01884
C         34.16882         5.70162        -0.40824
C         34.23377         8.60889        -0.08209
C         33.04808        10.74747         0.51394
C         33.11833        12.17329         0.83599
C         34.30251         9.99197         0.28356
C         34.37167        12.83454         0.83988
C         33.21465        14.99752         0.99993
C         33.23717        16.43592         0.89859
C         34.42052        14.23567         1.02152
C         34.51360        17.16518         0.99831
C         33.30577        19.17825        -0.03979
C         34.55848        18.61497         0.42351
C         35.30197         2.14994        -1.06543
C         35.29649         3.60527        -1.01186
C         36.47408         1.45524        -1.37553
C         36.45612         4.35488        -1.30460
C         35.35119         6.44209        -0.62121
C         35.39823         7.87681        -0.40457
C         36.52962         5.74481        -1.01957
C         36.67366         8.53087        -0.42515
C         35.51650        10.67460         0.32702
C         35.59027        12.06876         0.65129
C         36.76474        10.02582        -0.22393
C         36.85185        12.70329         0.73824
C         35.73868        14.88357         1.14358
C         35.81120        16.40622         1.07079
C         36.96272        14.11047         0.87190
C         37.05223        16.99552         0.55616
C         35.84497        19.09218        -0.05805
C         37.03561        18.35039         0.05536
C         37.64354         2.13186        -1.92280
C         37.62458         3.70023        -1.89684
C         38.96901         1.51176        -1.92871
C         38.91003         4.40742        -1.90757
C         37.77336         6.45278        -1.16506
C         37.83908         7.83212        -0.74394
C         38.93278         5.80084        -1.62042
C         39.15453         8.44051        -0.58153
C         38.00260        10.42549         0.56568
C         38.07261        11.88189         0.92158
C         39.25446         9.62821         0.31534
C         39.41588        12.58875         0.98170
C         38.20609        14.78450         0.73635
C         38.22885        16.21402         0.48576
C         39.43284        14.03843         0.64775
C         39.44961        16.81773         0.03176
C         38.25355        18.92884        -0.37445
C         39.45601        18.19760        -0.36258
C         40.10008         2.25414        -2.13058
C         40.09817         3.68947        -2.14458
C         41.34886         4.41823        -2.18017
C         40.15804         6.61735        -1.97782
C         40.28324         7.86201        -1.11454
C         41.40165         5.76449        -2.05484
C         41.57517         8.48877        -0.91725
C         40.60079        10.27716         0.49582
C         40.67855        11.77776         0.80475
C         41.73489         9.61228        -0.17931
C         41.88766        12.53680         0.43892
C         40.63089        14.65025         0.26414
C         40.65329        16.06076        -0.06924
C         41.85124        13.86642         0.19763
C         41.83189        16.70568        -0.50277
C         40.66827        18.80471        -0.79101
C         41.83704        18.06283        -0.84658
O         10.81922         8.30834        -0.98470
O         12.22262         9.04370         2.21707
O         20.09130         9.05964         1.49462
O          4.57065         6.04326        -1.67214
O         40.89945        10.76541         1.83252
O         37.34959         2.94502        -3.10961
O         32.01783        10.44871        -0.47999
O         26.48040        14.00322         2.23192
O         38.45820         9.47670         1.54884
O         14.30720        14.73721         2.13883
O         38.69865        12.22636         2.19559
O         21.87361         6.01196        -1.89035
O         30.43527         3.66140         2.43369
O         17.05693        17.53808        -2.03037
O         23.49040         4.39049         1.98900
O          3.05846        10.26467         1.64094
O         17.08082        14.96636         1.63828
O         20.64573         3.77371        -1.90550
O         14.96365         9.07668         2.11967
O         34.51047        18.29659         1.87864
O         13.14971        17.35525         1.71871
O         24.67519         5.84627        -1.08861
O         32.42168         7.25576        -1.17912
O          2.94370         3.97411         1.17505
O         23.80736        11.35907        -1.60290
O         35.90749        15.71397         2.35352
O         10.23019        14.61203         2.03461
O         30.35586         8.15315         2.68532
O         10.19024        17.21941         1.71114
O         28.79240        12.91339         2.84051
O         27.67706        10.64641         3.33028
H         28.12047        11.37657         3.82177
O         23.39274        15.07152         1.54092
H         22.60552        15.58846         1.81211
O         21.78826         9.87481        -1.81666
H         22.39730        10.48713        -2.30229
O         24.79173        14.27491        -1.74792
H         24.68676        15.19495        -2.07317
O          2.13575         5.46838        -2.11644
H          3.00874         5.56379        -2.56744
O         39.92454         7.11247        -3.34689
H         39.78541         6.32788        -3.91920
O          4.73672        18.78339         1.10024
H          3.92613        18.32777         1.41375
O         36.97548        10.62555        -1.54802
H         36.22339        10.36206        -2.12010
O         22.85516         1.96730         2.54404
H         23.12142         2.82036         2.96440
O          7.75946        14.06397        -1.84798
H          7.01085        13.58402        -2.26331
H          0.48426         1.26856        -0.54017
H          0.44497         3.68871        -1.03768
H          2.59014         0.12638         0.06150
H          0.26960         5.73815        -0.01474
H          0.35338         8.11465         0.52059
H          0.28968        10.03645        -0.17274
H          0.32143        12.43941        -0.41280
H          0.28422        14.33332        -0.51672
H          0.30735        16.74653        -0.96236
H          1.57196        18.84017        -1.45273
H          5.06494         0.16811         0.03691
H          3.64602        20.15855        -1.22275
H          7.50528         0.20885        -0.04983
H          6.17041        20.19361        -1.01392
H          9.93529         0.22943        -0.27816
H          8.64241        20.11264        -1.23021
H         12.39178         0.24349        -0.50780
H         11.06864        20.13365        -1.08419
H         14.86093         0.25361        -0.71889
H         13.48292        20.21244        -0.96267
H         17.36189         0.28111        -0.77332
H         15.92579        20.34171        -0.77139
H         19.70734         0.30000        -0.44661
H         18.53620        20.32656        -0.91527
H         21.85683         0.32254         0.81572
H         20.97391        20.29765        -1.16810
H         24.54863         0.33551         0.83439
H         23.46888        20.32137        -1.06664
H         26.97644         0.33232         0.85430
H         25.98152        20.32378        -0.84626
H         29.33983         0.30755         0.60322
H         28.45281        20.31849        -0.55367
H         31.72696         0.31341        -0.12601
H         30.90914        20.26898        -0.39307
H         34.11988         0.34748        -0.74691
H         33.32124        20.12395        -0.60085
H         36.52279         0.36972        -1.20088
H         35.87113        20.04719        -0.60321
H         39.04396         0.43106        -1.73784
H         38.25865        19.97306        -0.71944
H         41.07609         1.74747        -2.17041
H         42.27874         3.84078        -2.29642
H         42.37788         6.26379        -2.12975
H         42.46133         8.03789        -1.38307
H         42.74195        10.02440        -0.02907
H         42.84905        12.00621         0.41655
H         42.79385        14.37278        -0.04587
H         42.77461        16.15004        -0.58345
H         40.66287        19.86399        -1.08446
H         42.77361        18.53293        -1.17698
