         429
 CSIRO Nanostructure Databank - Neutral Graphene Oxide Data Set
C          1.27669         3.57243        -1.39552
C          0.04906         4.28197        -1.28841
C          1.23147         6.44400        -1.29790
C          0.00914         5.64403        -1.15274
C          1.24151         7.86373        -0.85052
C          0.09969         8.63948        -0.99162
C          1.11840        10.55440         0.12051
C          0.05860         9.98839        -0.57276
C          1.12144        11.94363         0.52644
C         -0.09465        12.66494         0.60292
C          1.08026        14.78860         0.83953
C         -0.11625        14.03210         0.80642
C          1.02912        16.22229         0.96006
C         -0.09575        16.95678         1.38652
C          1.08780        19.11962         1.24796
C         -0.08421        18.35110         1.47010
C          1.08813        20.59578         1.23996
C         -0.12924        21.30959         1.20125
C          1.05625        23.43393         1.08405
C         -0.13924        22.69577         1.12041
C          1.02759        24.91493         1.15774
C         -0.16771        25.69652         0.83512
C          1.13480        27.78603         0.66787
C         -0.09959        27.05366         0.69515
C          1.09445        29.27201         0.56176
C         -0.05361        29.97850        -0.02522
C          1.20127        32.09513        -0.13677
C         -0.01809        31.32175        -0.23067
C          1.21044        33.51765        -0.39553
C          0.01594        34.28689        -0.47913
C          1.28573        36.32039        -0.93285
C          0.05214        35.64496        -0.72664
C          1.33156        37.74713        -1.20184
C          3.72802         3.50058        -1.22257
C          2.50619         4.22106        -1.29105
C          3.84614         6.43793        -1.02448
C          2.54652         5.70241        -1.34653
C          3.65691         7.74344        -0.24160
C          2.42312         8.40975        -0.24506
C          3.62077        10.46988         0.77827
C          2.30215         9.73061         0.39487
C          3.60626        11.94333         0.77410
C          2.35296        12.63581         0.73493
C          3.57213        14.75833         0.81553
C          2.33644        14.07329         0.78506
C          3.55937        16.20315         0.59089
C          2.22541        16.99301         0.64080
C          3.52316        19.12164         0.83164
C          2.27841        18.43150         0.94187
C          3.60524        20.57462         1.25142
C          2.29691        21.32475         1.16041
C          3.54576        23.49708         0.89162
C          2.30306        22.74828         1.09581
C          3.55139        24.85978         0.70818
C          2.36265        25.66773         1.00481
C          3.62357        27.77556         0.48503
C          2.36073        27.11172         0.68562
C          3.72355        29.26418         0.77177
C          2.40707        30.03129         0.59733
C          3.66039        32.06187        -0.16541
C          2.41529        31.41238         0.07003
C          3.67796        33.43371        -0.49040
C          2.45688        34.19198        -0.54801
C          3.76506        36.25189        -1.16287
C          2.48088        35.59227        -0.82586
C          3.77503        37.70305        -1.63734
C          2.48064        38.40471        -1.49936
C          6.17302         3.51132        -1.03481
C          4.93132         4.14172        -0.89983
C          6.15886         6.22532        -0.17167
C          4.83600         5.51958        -0.28313
C          6.09424         7.60434         0.33996
C          4.83847         8.38103         0.25018
C          6.11821        10.49353         0.66187
C          4.88196         9.75398         0.57210
C          6.09922        11.92631         0.82472
C          4.83334        12.63025         0.84160
C          6.05834        14.76708         0.94729
C          4.82708        14.07001         0.88987
C          6.06893        16.22876         1.07537
C          4.76124        16.98605         0.92455
C          5.98424        19.12692         0.42218
C          4.71624        18.43775         0.69240
C          6.05574        20.58718         0.54055
C          4.72577        21.31281         0.50797
C          6.06851        23.40281         0.36421
C          4.86526        22.75386         1.00491
C          6.02280        24.81091        -0.01997
C          4.72267        25.57599         0.13870
C          6.05385        27.69704        -0.06424
C          4.79864        27.05220         0.23203
C          6.08957        29.15778        -0.10706
C          4.90457        29.91611         0.09794
C          6.13331        31.98506        -0.34614
C          4.89797        31.30564        -0.13000
C          6.16641        33.40248        -0.49677
C          4.93772        34.11092        -0.62221
C          6.19470        36.15849        -0.49007
C          4.97922        35.51378        -0.74127
C          6.23109        38.21540        -1.30740
C          5.01706        38.51183        -1.89732
C          8.61881         3.57461        -1.06858
C          7.39596         4.20638        -0.83871
C          8.61613         6.34943        -0.35935
C          7.36235         5.60941        -0.42593
C          8.63279         7.71070         0.01052
C          7.40146         8.36808         0.47030
C          8.59240        10.54989         0.56835
C          7.36395         9.83916         0.52627
C          8.58438        11.95355         0.83297
C          7.32081        12.63678         0.92162
C          8.52050        14.80142         1.15749
C          7.31244        14.08556         1.01301
C          8.54376        16.23640         0.99883
C          7.32399        16.93780         0.86512
C          8.52333        19.13969         0.50310
C          7.28634        18.35214         0.47595
C          8.52243        20.52095         0.39729
C          7.25987        21.25276         0.46514
C          8.51838        23.42413         0.20866
C          7.27158        22.71492         0.35177
C          8.50740        24.82755         0.02338
C          7.28352        25.55073        -0.11376
C          8.52044        27.58208        -0.82463
C          7.24133        26.95346        -0.28764
C          8.54022        29.10653        -0.70934
C          7.30414        29.83558        -0.33934
C          8.59330        31.97613        -0.32221
C          7.35024        31.25390        -0.34137
C          8.62398        33.35377        -0.44021
C          7.41138        34.09426        -0.56597
C          8.67683        36.27532        -0.79410
C          7.44823        35.52421        -0.58297
C          8.69972        37.65157        -1.27726
C          7.57309        38.43641        -1.70787
C         11.07860         3.63902        -1.20651
C          9.85385         4.28268        -0.99857
C         11.04317         6.43272        -0.71245
C          9.83305         5.69722        -0.70650
C         11.02524         7.80705        -0.36902
C          9.84119         8.45730         0.01682
C         11.05131        10.56511         0.60689
C          9.84787         9.86497         0.41867
C         11.05668        11.97191         0.90991
C          9.81803        12.64267         1.00991
C         11.07295        14.83065         1.44034
C          9.76260        14.04022         1.58330
C         11.05117        16.31211         1.14524
C          9.76505        16.95167         0.86911
C         11.04545        19.10142         0.28177
C          9.75393        18.34689         0.40603
C         11.00756        20.57564         0.34811
C          9.77826        21.25816         0.32437
C         10.99064        23.39497         0.36588
C          9.77400        22.69733         0.30694
C         10.96147        24.86862         0.68393
C          9.74671        25.58234         0.09580
C         10.95844        27.72562         0.10070
C          9.75252        26.92263        -0.18270
C         11.14491        29.04372        -0.62154
C          9.83928        29.84265        -0.60755
C         11.09932        31.96369        -0.28342
C          9.83826        31.21266         0.05338
C         11.10845        33.30445        -0.48382
C          9.89167        34.13379        -0.16869
C         11.12578        36.15280        -1.05027
C          9.89979        35.54493        -0.73801
C         11.18433        37.56560        -1.29788
C          9.96900        38.25472        -1.46445
C         13.55158         3.69252        -1.34255
C         12.30711         4.35375        -1.17468
C         13.52323         6.47913        -1.02146
C         12.30000         5.76578        -0.96750
C         13.51719         7.98737        -0.92453
C         12.32103         8.46377        -0.12672
C         13.63280        10.56748         0.55046
C         12.32995         9.82673         0.47876
C         13.60733        12.01800         0.90828
C         12.31120        12.71138         1.03673
C         13.56776        14.85098         1.09277
C         12.33824        14.10451         1.16219
C         13.55072        16.30446         0.95483
C         12.31861        17.00616         0.81686
C         13.50231        19.12569         0.43439
C         12.30748        18.39221         0.56802
C         13.48830        20.56965         0.28352
C         12.24693        21.27868         0.33838
C         13.48694        23.39828         0.21488
C         12.24393        22.70828         0.30904
C         13.49717        24.87308        -0.07889
C         12.24769        25.56193         0.37558
C         13.54218        27.71436         0.30983
C         12.26635        26.99007         0.41838
C         13.54386        29.11783         0.20232
C         12.34488        29.82716        -0.12863
C         13.56450        31.93781         0.08762
C         12.35230        31.21472        -0.17980
C         13.50618        33.45397         0.09179
C         12.42668        33.88533        -0.92652
C         13.68137        36.14557        -1.11091
C         12.38335        35.38776        -1.17830
C         13.66368        37.62785        -1.09401
C         12.43637        38.26441        -1.31178
C         16.03617         3.63963        -1.51534
C         14.74611         4.40161        -1.37568
C         15.96194         6.65658        -1.49105
C         14.72776         5.81504        -1.27269
C         16.03413         7.77173        -0.38364
C         14.80364         8.60234        -0.43537
C         16.12175        10.68181         0.22124
C         14.82631        10.09296        -0.30266
C         16.08739        12.03723         0.61913
C         14.86583        12.78100         0.77250
C         16.08443        14.93036         1.18990
C         14.81736        14.16914         1.00375
C         16.10574        16.44841         1.06486
C         14.75038        17.03310         0.76039
C         15.92142        19.07132         0.00216
C         14.72746        18.41888         0.48943
C         15.93204        20.53543        -0.19690
C         14.70037        21.27454         0.13539
C         15.97308        23.42898         0.32586
C         14.71400        22.70492         0.16178
C         15.93985        24.85710         0.59642
C         14.74619        25.57260         0.43039
C         15.93916        27.71044         0.86674
C         14.74104        26.99304         0.52942
C         15.90674        29.13394         0.89494
C         14.75227        29.83754         0.48522
C         15.91494        32.08378         0.87615
C         14.72963        31.27190         0.40953
C         16.01292        33.43489         0.22262
C         14.84794        34.10237        -0.17294
C         16.07952        36.18853        -0.52007
C         14.89852        35.44929        -0.63131
C         16.12848        37.58759        -0.87374
C         14.90944        38.29285        -1.06168
C         18.52801         3.81520        -1.51091
C         17.28049         4.49630        -1.48603
C         18.49230         6.69510        -1.65688
C         17.23603         5.87926        -1.52092
C         18.49452         7.94609        -0.78948
C         17.33132         8.56959        -0.42528
C         18.59702        10.62529         0.13313
C         17.34441         9.96120         0.04477
C         18.65601        12.00915         0.63814
C         17.36037        12.71534         0.93073
C         18.59742        14.95572         0.58675
C         17.38495        14.21433         1.04154
C         18.47741        16.31951         0.14222
C         17.21460        16.94186         0.12800
C         18.79977        19.35701        -0.40006
C         16.96745        18.24771        -0.40303
C         18.56852        20.64202         0.11481
C         17.29514        21.35897        -0.10413
C         18.38093        23.39740         0.89484
C         17.19239        22.74601         0.38857
C         18.37239        24.80368         1.14600
C         17.14191        25.55852         0.98093
C         18.31977        27.66597         1.66673
C         17.11594        26.95653         1.17017
C         18.37858        29.17045         1.59661
C         17.10941        29.91358         1.28072
C         18.43732        31.96099         0.78838
C         17.21150        31.32310         0.86797
C         18.49155        33.37976         0.43114
C         17.27239        34.07729         0.19621
C         18.64896        36.21419        -0.29828
C         17.27745        35.52497        -0.01321
C         18.59955        37.48422        -1.03723
C         17.38904        38.19350        -1.12418
C         19.74304         4.51267        -1.54091
C         20.97736         6.67080        -1.62431
C         19.76543         5.90072        -1.55232
C         20.98942         7.96500        -1.21970
C         19.84787         8.50224        -0.39476
C         21.01122        10.74084        -0.17958
C         19.82591        10.00029        -0.20379
C         21.02832        12.12758         0.05726
C         19.87429        12.81875         0.42367
C         21.03908        15.01912         0.27879
C         19.81509        14.25509         0.46764
C         21.01389        16.31819        -0.05957
C         19.73856        17.03065        -0.41615
C         20.73287        19.02698         0.95598
C         19.80091        18.49037         0.05581
C         20.67109        20.37987         1.30659
C         19.60236        21.20634         0.90117
C         20.73297        23.31271         1.55676
C         19.56570        22.64586         1.15413
C         20.75397        24.69775         1.68273
C         19.58948        25.45125         1.49029
C         20.85618        27.69338         1.57400
C         19.61270        26.91151         1.76406
C         20.85557        29.03351         1.34643
C         19.66076        29.84610         1.31312
C         20.90828        31.92255         0.76169
C         19.67729        31.21061         0.97268
C         20.93629        33.23134         0.36170
C         19.74213        34.00169         0.16426
C         20.93776        35.83207        -1.06345
C         19.81851        35.33524        -0.38488
C         20.93110        37.11399        -1.64838
C         19.79865        37.92088        -1.65262
O         16.85715        14.55114         2.38760
O          1.77416        25.40503         2.31983
O          5.10574        25.05242        -1.17990
O          1.57602        29.92099         1.80542
O         18.82439        27.21174         2.97372
O          9.16413        29.77945        -1.88852
O         11.38742        27.64549         1.47486
O         13.13417        35.68683        -2.41445
O         10.40859        18.54421        -0.93198
O         17.87664        18.81750        -1.31887
O         13.88226        10.92377         1.92322
O          3.75590        36.58903        -2.61612
O         18.01364        36.26667         1.00747
O         11.17641        15.77363         2.55729
O          6.77064         7.73905         1.64221
O         12.49294         8.61429         1.31840
O          6.57675        18.57957        -0.82194
O         16.61656        21.08870        -1.35739
O          2.76105         9.83476         1.77430
O         18.11982        12.09707         2.02169
O          6.13253        37.49010        -0.09689
O         17.56652        29.75084         2.68356
O          1.94253         6.22153        -2.58292
O          2.88870        16.62079        -0.62226
O          5.28360        16.70494         2.27219
O          4.29114         5.36037         1.05589
H          5.00597         5.04178         1.64565
O         13.29427         8.48464        -2.30334
H         14.06106         8.13546        -2.82626
O         15.99362         2.91676        -2.75854
H         16.87153         2.50890        -2.90646
O         10.77618        24.95650         2.14803
H         10.84714        25.91512         2.37587
O          4.30104        21.34415        -0.87299
H          5.01833        21.73678        -1.41387
O          9.58472        13.81520         3.01933
H          9.93562        14.61916         3.47019
O          9.81077        30.98454         1.48663
H          9.91753        31.85829         1.92309
O         15.63714        32.37207         2.30239
H         15.98403        31.61961         2.83199
O         13.53540        24.99567        -1.55396
H         14.29693        24.46496        -1.87256
O          4.46764         6.80061        -2.27748
H          3.73494         6.93337        -2.92408
O         16.46498        17.02200         2.35579
H         16.88207        16.28738         2.87275
O         13.10404        33.88492         1.41350
H         13.78555        33.55657         2.04440
O         11.42917        28.66433        -1.99228
H         11.31383        29.45742        -2.55819
O          5.20751        22.78719         2.41802
H          4.68874        22.08557         2.88286
O         20.08541         7.95267         0.95549
H         19.40105         8.32823         1.55042
O          8.55666        27.24972        -2.23250
H          9.10944        27.93869        -2.67004
O          9.92257        34.30024         1.29612
H          9.20789        34.92906         1.53414
O         18.51263         7.25045        -3.02900
H         17.65290         7.72116        -3.14976
O         15.79689         7.36208        -2.77239
H         15.76335         6.67474        -3.47324
O         14.61729        10.72936        -1.61706
H         14.03812        10.11543        -2.13930
O         19.68429        16.99652        -1.86261
H         18.93515        17.57565        -2.14215
O          3.95614        20.49900         2.67265
H          3.22415        20.04556         3.14204
O         12.76471        33.21991        -2.16788
H         13.12603        33.91527        -2.77106
O          4.05380        29.32691         2.19565
H          3.19117        29.33670         2.67583
O         16.05634         6.99893         0.86075
H         15.74200         7.57866         1.58697
H          1.25405         2.47344        -1.42514
H         -0.88470         3.70448        -1.22900
H         -0.93776         6.14846        -0.91404
H         -0.78535         8.21565        -1.48570
H         -0.83727        10.58175        -0.80031
H         -1.04769        12.12625         0.51217
H         -1.08498        14.54649         0.86769
H         -1.02479        16.42907         1.64476
H         -1.01472        18.85593         1.76353
H         -1.08654        20.77307         1.23540
H         -1.10525        23.21902         1.11385
H         -1.13250        25.18767         0.70086
H         -1.03450        27.60766         0.53159
H         -0.96508        29.41745        -0.27455
H         -0.92289        31.81884        -0.60796
H         -0.95783        33.79941        -0.33371
H         -0.88603        36.21565        -0.78555
H          0.38704        38.30799        -1.13228
H          3.72633         2.42500        -1.45838
H          2.46867        39.49792        -1.62372
H          6.20930         2.47394        -1.40232
H          4.99339        39.12985        -2.80820
H          8.63192         2.50847        -1.34061
H          7.78342        39.24734        -2.42223
H         11.09557         2.55615        -1.40001
H         10.00442        39.31902        -1.74187
H         13.56773         2.59960        -1.46112
H         12.41483        39.35836        -1.43131
H         16.10053         2.88904        -0.66898
H         14.94146        39.38157        -1.21806
H         18.53463         2.71503        -1.50276
H         17.40227        39.20731        -1.55257
H         20.68996         3.95340        -1.52767
H         21.88840         6.20059        -2.02724
H         21.91300         8.55308        -1.31187
H         21.96650        10.25145        -0.41038
H         21.98060        12.65827        -0.07325
H         22.00430        14.52307         0.45087
H         21.95602        16.86401        -0.21391
H         21.53266        18.39841         1.37207
H         21.45561        20.78555         1.95922
H         21.65441        22.74738         1.74691
H         21.68822        25.19350         1.97789
H         21.81542        27.15662         1.55273
H         21.82478        29.52089         1.17132
H         21.86409        31.40809         0.92697
H         21.91085        33.71729         0.21461
H         21.84289        35.21668        -1.16062
H         21.84029        37.46446        -2.15663
H         19.81657        38.89153        -2.16854
