         720
 CSIRO Nanostructure Databank - Neutral Graphene Oxide Data Set
C         23.20650        27.25553         1.13919
C         23.11696        28.62904         1.01239
C         22.97773        31.62705         0.81116
C         22.96908        33.01029         0.81159
C         22.94214        36.01333         0.67391
C         22.93534        37.35324         0.85627
C         23.06202        40.34424         1.42707
C         23.06392        41.77325         1.42348
C         23.08285        44.75712         1.49221
C         23.06775        46.10113         1.36638
C         25.77009        24.51955         0.92525
C         24.58004        25.18774         1.20341
C         25.65446        27.37965         0.80895
C         24.45049        26.58014         1.05031
C         25.50178        28.80742         0.48560
C         24.25425        29.44211         0.70338
C         25.38348        31.61441         0.44475
C         24.17755        30.88333         0.63784
C         25.36873        33.03664         0.54948
C         24.17207        33.76766         0.70776
C         25.36923        35.95720         0.73013
C         24.17740        35.23696         0.74646
C         25.41872        37.40669         0.78386
C         24.17742        38.07658         1.33482
C         25.48242        40.26731         1.05837
C         24.18191        39.58681         1.18755
C         25.48231        41.78137         1.03047
C         24.20859        42.51780         1.18652
C         25.45857        44.62776         0.85909
C         24.24708        43.96325         1.13752
C         25.50970        46.06898         0.78075
C         24.20630        46.83574         0.71843
C         25.54112        48.91112         1.04198
C         24.36825        48.25695         1.19400
C         28.07738        23.04480        -0.05775
C         28.06331        24.48295        -0.05455
C         26.92873        25.17260         0.43564
C         28.01481        27.35067        -0.29462
C         26.96038        26.64465         0.45770
C         27.77832        28.80102        -0.67212
C         26.64710        29.52781         0.06268
C         27.73999        31.71167        -0.40966
C         26.59062        30.92348         0.08308
C         27.86463        33.10436         0.06048
C         26.66801        33.72059         0.62684
C         27.86915        35.94329         0.35387
C         26.65559        35.24875         0.73525
C         27.75020        37.36458        -0.12473
C         26.58502        38.10042         0.49476
C         27.78405        40.22061         0.04749
C         26.65568        39.54120         0.49825
C         27.69082        41.68889        -0.31759
C         26.64662        42.48347         0.46168
C         27.92708        44.56865         0.41702
C         26.64332        43.85467         0.52483
C         27.98037        46.06685         0.48233
C         26.69153        46.78136         0.57926
C         27.90367        48.89923         0.17123
C         26.73143        48.22119         0.56786
C         28.02051        50.31473         0.15260
C         30.25099        23.03780        -1.18190
C         29.10337        22.34348        -0.59588
C         30.31131        24.50763        -1.07545
C         29.21221        25.20098        -0.57703
C         30.34498        27.36843        -1.14815
C         29.15172        26.66564        -0.70307
C         30.24026        28.86221        -1.37781
C         29.08197        29.55345        -0.68047
C         30.24586        31.81861        -1.02079
C         28.99698        30.99777        -0.83451
C         30.30635        33.19467        -0.44469
C         29.05897        33.80667         0.03784
C         30.31344        35.98558         0.36258
C         29.04440        35.23466         0.26985
C         30.32254        37.45124         0.06621
C         29.03663        38.14638        -0.13657
C         30.27169        40.23282        -0.72527
C         29.01831        39.50959        -0.24074
C         30.33871        41.68169        -0.27723
C         29.05053        42.41149        -0.43159
C         30.39534        44.57395        -0.03957
C         29.10179        43.87668        -0.15816
C         30.37559        45.99052        -0.22729
C         29.15417        46.71486        -0.10863
C         30.31815        48.87507        -0.83623
C         29.04320        48.14065        -0.40728
C         30.42287        50.29977        -0.45776
C         29.21145        50.96650        -0.12342
C         32.70268        20.29875        -0.43848
C         31.60216        20.82353        -0.99989
C         32.84286        22.99384        -1.51017
C         31.54079        22.23878        -1.40823
C         32.79583        24.48145        -1.78772
C         31.44191        25.23310        -1.81079
C         32.82062        27.37966        -1.41310
C         31.54229        26.69729        -1.39969
C         32.82703        28.84800        -1.15477
C         31.53786        29.59397        -1.10047
C         32.82432        31.81476        -1.22406
C         31.52363        31.08062        -1.32533
C         32.78389        33.23393        -0.70684
C         31.50171        33.84337        -0.28065
C         32.79862        35.97927         0.18086
C         31.56951        35.15161         0.49722
C         32.79248        37.32138        -0.09806
C         31.59438        38.15104        -0.24080
C         32.84789        40.32102        -0.58511
C         31.58769        39.49462        -0.54349
C         32.82061        41.63457         0.25443
C         31.50869        42.35673        -0.03509
C         32.78083        44.47609        -0.52345
C         31.57801        43.82172        -0.14570
C         32.76987        45.87472        -0.74320
C         31.59303        46.62937        -0.60067
C         32.85726        48.75803        -0.86543
C         31.56828        48.04268        -1.15808
C         32.86360        50.17982        -0.77409
C         31.68994        50.95251        -0.42065
C         32.94681        52.97665         0.52273
C         31.81385        52.23356         0.23568
C         35.25704        18.92528         0.43191
C         35.20704        20.39982         0.25892
C         33.91906        21.10458        -0.19565
C         35.25794        23.09515        -0.82873
C         34.05362        22.41348        -0.86866
C         35.36337        24.50487        -1.29113
C         34.09065        25.25047        -1.66609
C         35.33167        27.38571        -1.34593
C         34.05341        26.71376        -1.46836
C         35.35175        28.83995        -1.62817
C         34.06311        29.61543        -1.51453
C         35.28867        31.74910        -1.01468
C         34.10046        31.06456        -1.19268
C         35.32479        33.11248        -0.53522
C         34.06022        33.75444        -0.14159
C         35.34767        35.90344         0.15484
C         34.06950        35.22633         0.27652
C         35.33889        37.39563         0.27617
C         34.08764        38.00466        -0.32022
C         35.33614        40.22573        -0.20644
C         34.09679        39.48226        -0.48973
C         35.27032        41.59999        -0.32811
C         33.92331        42.19108        -0.67167
C         35.27494        44.44045        -0.70920
C         33.97707        43.68751        -1.06173
C         35.28543        45.82164        -0.81606
C         34.03066        46.55413        -1.26507
C         35.30536        48.71161        -0.85120
C         34.04913        48.03726        -0.92388
C         35.34323        50.14273        -0.83439
C         34.11512        50.79990        -0.96229
C         35.52158        52.98540         0.37494
C         34.22041        52.75195        -0.08476
C         35.75975        54.06091         1.32036
C         37.70839        19.00173         0.84852
C         36.40244        18.26653         0.65694
C         37.70240        20.29268         0.02396
C         36.46396        21.08732        -0.04615
C         37.74213        23.16194        -0.45838
C         36.48556        22.43042        -0.41556
C         37.72047        24.59295        -0.55078
C         36.55696        25.28580        -0.87688
C         37.80596        27.45309        -0.92292
C         36.53235        26.71973        -1.04504
C         37.86498        28.86433        -1.15165
C         36.63976        29.59768        -1.53739
C         37.81576        31.77030        -0.80017
C         36.58953        31.09350        -1.25562
C         37.80606        33.09948        -0.42854
C         36.52733        33.78068        -0.28799
C         37.78553        35.90723         0.12809
C         36.52285        35.19399         0.00754
C         37.81344        37.30552         0.11165
C         36.58555        38.04039        -0.37229
C         37.75082        40.18953         0.15245
C         36.58793        39.51701        -0.05169
C         37.69393        41.67747         0.39813
C         36.46813        42.36365        -0.18025
C         37.75010        44.47796        -0.21212
C         36.49421        43.74295        -0.37659
C         37.75527        45.89621        -0.36918
C         36.51263        46.57161        -0.66776
C         37.81207        48.67406        -1.12147
C         36.51295        47.96816        -0.83683
C         37.78118        50.17597        -0.91778
C         36.58284        50.89167        -0.67722
C         37.95292        52.78540         0.06417
C         36.66363        52.23120        -0.14164
C         38.21813        54.04710         0.86623
C         36.97921        54.61244         1.49696
C         40.19950        16.10599         0.34291
C         38.98697        16.83848         0.36934
C         40.27078        18.92762         0.81962
C         38.96389        18.20228         0.56254
C         40.25302        20.40324         0.38887
C         39.00252        21.00849        -0.18903
C         40.22139        23.17241        -0.45989
C         38.98507        22.48225        -0.36047
C         40.24894        24.58464        -0.42854
C         38.96398        25.33898        -0.14106
C         40.24863        27.45810        -0.59950
C         38.99783        26.77213        -0.61705
C         40.27215        28.87755        -0.75286
C         39.06258        29.57702        -1.02012
C         40.36389        31.82874        -0.82991
C         39.08165        31.06668        -1.07167
C         40.29546        33.17303        -0.20364
C         39.04217        33.80123        -0.10630
C         40.19141        35.88465         0.59439
C         39.00328        35.18627         0.23619
C         40.15988        37.30612         0.70306
C         39.00975        38.00801         0.34324
C         40.24913        40.19075         0.59941
C         39.07540        39.46913        -0.03385
C         40.12966        41.66815         0.69654
C         39.00016        42.32332        -0.07050
C         40.18470        44.53804         0.25015
C         38.95776        43.82395         0.08096
C         40.19055        45.96318         0.07270
C         38.97270        46.61063        -0.21550
C         40.25303        48.71687        -0.60786
C         38.93156        48.11763        -0.23657
C         40.26934        50.06219        -1.14765
C         39.01550        50.83544        -0.93301
C         40.33485        52.93249        -0.64138
C         39.10069        52.16289        -0.45990
C         40.28213        54.32439        -0.50168
C         39.01503        55.02030        -0.03433
C         40.44708        57.03763         0.35227
C         39.30469        56.36177         0.59482
C         42.69051        16.04035         0.45216
C         41.44664        16.76996         0.29661
C         42.69767        18.87219        -0.04532
C         41.46573        18.17913         0.26740
C         42.79061        20.32732        -0.01496
C         41.53351        21.08809         0.06038
C         42.76191        23.11805        -0.55476
C         41.47685        22.37018        -0.76552
C         42.73164        24.56099        -0.35617
C         41.45967        25.29805        -0.43224
C         42.72507        27.42816        -0.59909
C         41.48922        26.72801        -0.49718
C         42.69618        28.84371        -0.59994
C         41.51599        29.56913        -0.66715
C         42.62593        31.57072         0.30413
C         41.67920        31.07493        -0.80796
C         42.81691        33.13683         0.12055
C         41.46744        33.82788         0.28589
C         42.57854        35.81367         1.38839
C         41.41226        35.15411         0.72250
C         42.55483        37.30646         1.61608
C         41.31823        38.05709         1.23532
C         42.53689        40.23656         1.70838
C         41.33615        39.53569         1.07909
C         42.60292        41.74872         1.41647
C         41.33910        42.47482         1.05867
C         42.64201        44.57783         0.60141
C         41.39108        43.87866         0.60441
C         42.63666        46.02505         0.45021
C         41.44292        46.68572         0.23629
C         42.71194        48.98006         0.07948
C         41.42330        48.15710         0.03146
C         42.82343        50.19361        -0.75276
C         41.58285        50.81298        -1.31018
C         42.26184        53.17114        -2.07242
C         41.42689        52.30859        -1.33492
C         42.50416        54.49030        -1.55566
C         41.43988        55.09149        -0.82004
C         42.69767        57.15933        -0.73238
C         41.53445        56.45606        -0.41911
C         43.89081        16.67327         0.54695
C         45.27534        18.89134         0.45236
C         44.04192        18.06460         0.10472
C         45.23691        20.29037        -0.12476
C         44.02845        20.97657        -0.25684
C         45.21130        23.11288        -0.71568
C         44.00863        22.43532        -0.50617
C         45.19761        24.56309        -1.13792
C         44.03656        25.31082        -0.52877
C         45.22297        27.43565        -0.87506
C         44.00792        26.77367        -0.72086
C         45.24849        28.91392        -0.97832
C         43.95431        29.61136        -0.71103
C         45.25507        31.47184         0.54678
C         43.96399        30.84442         0.14110
C         45.18236        32.85737         1.15843
C         43.90142        33.62073         1.10855
C         45.18396        35.74855         1.98165
C         43.86037        35.06699         1.55792
C         45.17104        37.30641         1.84414
C         43.85918        38.06355         1.73264
C         45.08238        40.12571         0.86030
C         43.82358        39.49182         1.37161
C         45.12548        41.65181         0.89682
C         43.88457        42.43841         1.08026
C         45.19280        44.56271         0.77739
C         43.84848        43.87443         0.71976
C         45.15252        46.00542         0.31167
C         43.92716        46.74800         0.83173
C         45.28111        48.96247         0.29682
C         43.97035        48.26327         0.52166
C         45.27486        50.32283        -0.29820
C         44.10020        50.82006        -0.85174
C         45.27123        53.03589        -1.42208
C         44.45694        51.86021        -1.86978
C         45.07429        54.42014        -1.74026
C         43.77307        55.14391        -1.66530
C         43.80407        56.49996        -1.28614
C         47.68745        18.79994        -0.26058
C         46.54644        18.16247         0.07762
C         47.77593        20.23773        -0.43142
C         46.53485        21.05995        -0.10590
C         47.73028        23.12313        -0.79356
C         46.46318        22.32364        -0.97965
C         47.73558        24.55953        -1.27539
C         46.48656        25.32280        -0.92941
C         47.75777        27.44173        -0.74854
C         46.48773        26.69617        -0.85599
C         47.75190        28.80551        -0.59739
C         46.56198        29.69442        -0.86674
C         47.71391        31.58516         0.31897
C         46.53806        30.92584         0.05230
C         47.73541        32.93440         0.96370
C         46.46631        33.61140         1.37771
C         47.71517        35.84401         1.67521
C         46.39953        35.14379         1.24507
C         47.62417        37.33534         1.30785
C         46.42835        38.01015         1.44510
C         47.57895        40.22287         0.86150
C         46.38035        39.53814         1.50227
C         47.54835        41.56062         0.54510
C         46.28979        42.29835         0.59941
C         47.54112        44.38553        -0.26868
C         46.19805        43.68707        -0.00354
C         47.60694        45.88764        -0.26511
C         46.50297        46.69156         0.42511
C         47.64502        48.77358        -0.40626
C         46.50153        48.16423         0.04901
C         47.81721        50.27863        -0.35456
C         46.53799        51.17003        -0.13154
C         47.52092        53.49154        -0.71609
C         46.48109        52.55350        -0.85317
C         47.44846        54.76719        -1.28559
C         46.23381        55.22763        -1.76911
C         50.24041        20.20222        -0.85685
C         48.95396        20.87919        -0.73882
C         50.21264        23.06605        -0.70644
C         48.96760        22.33463        -1.17084
C         50.25514        24.53878        -0.98258
C         48.99628        25.30422        -0.90233
C         50.29450        27.34337        -0.48031
C         49.02042        26.67281        -0.74384
C         50.29765        28.82421        -0.43729
C         49.00625        29.58949        -0.53400
C         50.17752        31.66985         0.16998
C         48.98500        30.98119        -0.02860
C         50.14335        33.08041         0.49277
C         48.96564        33.75191         0.78281
C         50.10824        35.92765         1.04897
C         48.95318        35.17242         1.09734
C         50.08204        37.38257         1.07828
C         48.85093        38.03809         1.03634
C         50.07395        40.24189         0.76274
C         48.81597        39.44493         0.50108
C         50.03193        41.61177         0.65084
C         48.79385        42.30001         0.32004
C         50.07476        44.38027        -0.10160
C         48.81118        43.63938        -0.05462
C         50.09568        45.76763        -0.59855
C         48.91081        46.56826        -0.52994
C         49.79426        48.64613        -1.55001
C         48.80165        47.96487        -0.78210
C         50.14221        49.97914        -1.46164
C         49.18341        50.86031        -0.74783
C         50.47830        52.77391        -1.68139
C         49.45990        52.29635        -0.90701
C         51.42350        20.86020        -0.78545
C         52.79142        23.06351        -0.50871
C         51.49375        22.31560        -0.51065
C         52.80210        24.46487        -0.46271
C         51.56037        25.24411        -0.71026
C         52.74544        27.31361         0.18420
C         51.48350        26.66049        -0.34229
C         52.75058        28.80753        -0.09258
C         51.49011        29.54748        -0.01298
C         52.66347        31.64694         0.38578
C         51.46638        30.95814         0.14453
C         52.68721        33.13903         0.27815
C         51.42674        33.76943         0.88413
C         52.60732        35.93502         1.25436
C         51.40172        35.28040         0.60810
C         52.57961        37.41684         1.33453
C         51.31890        38.14494         1.03944
C         52.55772        40.31642         1.04462
C         51.32336        39.53832         0.97561
C         52.53817        41.69407         0.99990
C         51.21794        42.45089         1.05099
C         52.49538        44.60236         0.56425
C         51.24392        43.78516         0.34339
C         52.60284        45.73055        -0.43437
C         51.39311        46.27286        -0.96187
C         52.67721        48.22509        -1.78997
C         51.54557        47.43251        -1.77111
C         52.68310        49.73987        -1.88474
C         51.36545        50.51106        -2.04962
C         51.46816        51.87801        -2.20358
C         55.23357        23.06801        -0.45341
C         54.03103        22.38088        -0.48388
C         55.27606        24.48259        -0.40215
C         54.03247        25.18850        -0.38503
C         55.23637        27.31546        -0.15743
C         54.02677        26.60959        -0.22274
C         55.25740        28.70433         0.47479
C         54.01218        29.54990         0.12385
C         55.20600        31.74681         0.44516
C         53.94704        30.94476         0.72315
C         55.23107        33.09985         0.61298
C         53.93796        33.76225         0.89503
C         55.20120        35.97389         1.18609
C         53.92743        35.20990         1.22697
C         55.15953        37.35086         1.28870
C         53.88544        38.10102         1.10566
C         55.15368        40.34507         1.11811
C         53.86112        39.58923         0.94211
C         54.98114        41.75920         1.70073
C         53.78006        42.46327         1.02994
C         55.03297        44.58764         0.70021
C         53.78046        43.79129         0.69999
C         55.06888        45.87593        -0.07645
C         53.82225        46.36172        -0.69566
C         55.12192        48.30554        -1.61607
C         53.89563        47.63109        -1.35442
C         55.05974        49.49298        -2.44828
C         53.89000        50.14935        -2.68895
C         57.78974        24.57385        -0.32612
C         56.51804        25.22741        -0.36639
C         57.75655        27.41930        -0.46934
C         56.47344        26.63833        -0.28596
C         57.76070        28.85100         0.00487
C         56.46607        29.53212         0.00823
C         57.72561        31.74512         0.33736
C         56.45137        31.03359         0.11064
C         57.69573        33.12734         0.66368
C         56.47298        33.85018         0.75623
C         57.69905        35.98536         1.10940
C         56.44905        35.24322         1.06299
C         57.68953        37.39972         1.27907
C         56.40757        38.09868         1.67688
C         57.64771        40.30394         1.85064
C         56.41636        39.58815         1.36449
C         57.62307        41.79765         1.81529
C         56.31395        42.54531         1.64921
C         57.59462        44.41315         0.42951
C         56.32817        43.91011         1.05226
C         57.59472        45.74151        -0.29885
C         56.33985        46.47689        -0.52304
C         57.65042        48.31381        -1.47143
C         56.36585        47.68752        -1.21270
C         58.98240        25.27032        -0.15145
C         60.19580        27.43095         0.06478
C         59.00908        26.67414        -0.11054
C         60.18501        28.81285         0.11008
C         58.95360        29.57147         0.09490
C         60.17037        31.78293         0.27647
C         58.94081        31.01958         0.25772
C         60.18984        33.10281         0.58287
C         58.96810        33.79167         1.13020
C         60.12676        36.04030         0.99826
C         58.93980        35.30188         1.00075
C         60.10491        37.42905         1.11656
C         58.89514        38.11793         1.29718
C         59.73826        40.35817         0.51874
C         58.99994        39.60104         1.61193
C         59.75785        41.69474         0.52466
C         58.97080        42.51087         1.55108
C         60.01380        44.65214         0.77756
C         58.86920        43.92603         0.98457
C         60.01844        45.92032         0.11464
C         58.86582        46.47879        -0.39758
C         58.82339        47.77145        -1.03251
O         55.28127        28.45410         1.83518
O         34.34104        21.10325         1.20979
O         53.56976        29.35334        -1.21914
O         54.56821        41.57650         3.01751
O         26.73032        27.18458         1.80626
O         32.22523        29.23832         0.13973
O         26.85666        34.39338         1.91509
O         39.80164        31.73208        -2.18279
O         27.96189        31.47809        -1.85690
O         25.86275        41.04109         2.25915
O         29.27374        48.56458        -1.81765
O         44.46046        29.52955        -2.07349
O         56.29443        30.34366        -1.20338
O         40.90413        21.26732         1.38526
O         33.25536        41.29464        -1.74533
O         40.97433        50.13887        -2.46692
O         57.59205        41.05649         3.08505
O         54.93246        45.86876         1.42816
O         43.62362        24.93007         0.79831
O         32.88537        32.96578        -2.13535
O         34.23764        38.56388        -1.64485
O         43.48005        18.30958        -1.17896
O         36.79292        30.55105        -2.61644
O         51.09625        24.95934        -2.10020
O         44.56757        30.48507         1.42375
O         38.42022        20.19929        -1.25947
O         42.89983        35.14197         2.66539
O         56.08294        40.08246         0.02379
O         44.50105        51.50180        -3.04189
O         34.13731        52.13932        -1.35190
O         41.58880        37.66062         2.64246
O         35.03816        24.80703        -2.68690
O         52.42686        36.59069         2.54087
O         50.62563        22.71860         0.64049
O         34.03048        34.12975         1.25632
O         30.29676        36.95240         1.48462
O         44.55842        37.87965         3.05336
O         43.34889        42.38608         2.49905
O         32.95983        23.51842        -2.87083
O         40.26630        42.21019         2.03562
O         49.83039        29.41331        -1.73119
O         44.23015        32.81666         2.27712
O         28.97466        43.37183        -1.55068
O         48.73385        53.16790        -0.08782
O         53.91321        34.17809         2.29366
O         47.31046        33.02169         2.39056
O         48.85124        50.52944         0.65774
O         47.35075        45.16161        -1.52093
O         53.87636        38.72522        -0.24236
O         34.57589        29.21239        -2.81804
O         36.62278        37.88336        -1.76379
O         28.28982        45.22974         1.67649
O         44.65508        48.93762         1.64359
O         57.56252        44.43195        -1.03572
O         30.64576        22.50229        -2.51241
O         56.38786        43.73116         2.50047
O         50.44343        47.86442        -2.51355
O         41.76294        49.03692         1.21043
O         30.71122        31.60378        -2.41035
O         43.29535        33.35809        -1.15390
O         43.92087        46.62578         2.30227
H         44.15809        47.51563         2.66198
O         37.61092        41.89109         1.83476
H         36.82224        41.41595         2.17023
O         49.05622        22.26837        -2.64413
H         48.21531        21.82808        -2.92865
O         46.55031        51.51621         1.26973
H         47.49335        51.52433         1.56140
O         27.27520        28.75482        -2.05427
H         27.40795        29.66060        -2.42781
O         46.36532        21.85402        -2.37983
H         45.98855        22.59911        -2.90143
O         37.75318        19.39192         2.25025
H         38.66565        19.21179         2.59456
O         45.58201        43.41867        -1.29257
H         45.90301        44.11797        -1.91215
O         59.80378        39.69014         2.80271
H         59.82460        40.64427         3.06679
O         27.39657        37.21179        -1.55430
H         27.37068        38.11104        -1.94903
O         38.89144        25.41949         1.32985
H         39.74806        25.77416         1.65144
O         51.50530        33.55060         2.30690
H         50.79033        34.06005         2.74558
O         42.67030        52.90598        -3.32392
H         42.44940        51.98414        -3.57510
O         23.85305        46.93461        -0.71244
H         24.56502        47.44663        -1.15240
O         27.11438        41.64162        -1.66091
H         27.54504        42.36468        -2.17870
O         42.06471        31.30167         1.56992
H         42.79549        31.38225         2.23301
O         40.42954        18.93176         2.28872
H         40.92014        19.76415         2.50540
O         42.37866        40.10860         3.13968
H         42.90704        40.82963         3.55398
O         45.33974        35.44629         3.37204
H         44.45462        35.55761         3.79426
O         48.72930        39.26081        -0.96998
H         49.01156        40.10120        -1.39125
O         39.29048        39.43460        -1.47894
H         38.51865        38.95185        -1.86847
O         47.72092        24.54800        -2.77010
H         48.44139        23.91435        -3.03857
O         34.00799        46.49103        -2.71581
H         33.15077        46.89077        -3.00431
O         41.41010        21.92812        -2.15283
H         41.39279        22.71779        -2.73282
O         45.12950        39.76085        -0.55851
H         46.01442        40.01502        -0.90454
O         46.40914        39.89891         2.89542
H         45.75813        39.31999         3.36389
O         31.57621        47.86203        -2.61499
H         30.62759        47.84564        -2.89323
O         45.57486        44.48052         2.17398
H         45.00396        45.12834         2.65708
O         46.85437        30.25749        -2.17619
H         45.99320        30.34731        -2.65202
O         33.88363        43.73903        -2.50273
H         33.40340        42.93588        -2.80295
O         39.21419        42.07819        -1.47333
H         38.39095        42.28601        -1.96285
O         52.74458        27.22423         1.64249
H         53.61844        27.61056         1.95370
O         59.01323        33.56289         2.59179
H         58.98187        32.59332         2.73923
O         31.01980        25.26605        -3.19575
H         31.21162        24.37274        -3.56924
O         45.26961        19.04919         1.90349
H         45.88987        19.78763         2.11232
O         52.72156        33.41090        -1.14997
H         53.34597        32.78336        -1.57271
O         38.16999        55.27673        -1.19219
H         38.66514        55.86413        -1.80044
O         30.08450        40.34473        -2.17301
H         30.91010        40.71976        -2.55105
O         29.98278        28.99889        -2.80468
H         30.00560        29.96446        -3.02318
O         44.99723        24.54612        -2.59694
H         45.89563        24.66339        -3.00663
O         46.92585        46.71047         1.82931
H         46.27008        47.24565         2.32730
O         52.98618        50.13248        -0.48653
H         53.85991        49.75396        -0.24699
O         31.62834        34.75848         1.89168
H         31.38490        35.55220         2.41983
O         57.84236        27.58054        -1.94926
H         58.63114        28.13284        -2.14039
O         56.37850        38.07966         3.14164
H         56.47158        37.15222         3.44653
O         46.69872        21.49749         1.28112
H         47.42750        22.16141         1.28627
O         33.12835        41.57780         1.63545
H         32.31840        41.37617         2.14649
O         51.00047        42.78747         2.45965
H         51.59614        43.54547         2.67694
O         59.72326        42.52332         2.78358
H         59.09063        42.71297         3.51078
O         46.17084        35.42711        -0.15186
H         46.98737        35.24653        -0.66332
O         39.12005        53.69778         1.95140
H         38.68043        53.02428         2.51058
O         24.21665        37.86212         2.78787
H         24.36116        36.90369         2.94090
O         47.92529        35.77778         3.09712
H         47.05046        35.74663         3.55745
O         53.90851        30.75867         2.16942
H         53.78380        31.63859         2.58802
O         35.31652        37.73917         1.68717
H         35.92431        37.13739         2.16650
O         52.32170        45.21995         1.88624
H         53.18676        45.65438         2.10319
O         38.17772        48.35913        -2.48701
H         37.45416        48.65289        -3.07871
O         51.53054        35.56742        -0.80332
H         50.95779        34.95359        -1.30846
O         42.36791        31.32851        -2.04093
H         41.72861        31.71801        -2.67868
O         38.65035        48.56511         1.12636
H         39.45793        48.42613         1.66795
H         22.30087        26.66841         1.35010
H         22.13735        29.10784         1.14613
H         22.02472        31.09644         0.94460
H         22.01016        33.52991         0.94414
H         22.00520        35.49644         0.42041
H         21.98649        37.90600         0.79101
H         22.10142        39.84314         1.61564
H         22.10463        42.27903         1.60064
H         22.20508        44.24465         1.91114
H         22.17593        46.67737         1.65463
H         25.76607        23.42643         1.02784
H         23.69520        24.60128         1.49023
H         25.61177        49.97609         1.30554
H         23.47705        48.79346         1.55271
H         27.22414        22.49334         0.35620
H         27.15018        50.92719         0.42590
H         29.06214        21.24779        -0.63933
H         29.21514        52.06203        -0.04190
H         32.69531        19.24746        -0.12135
H         30.72428        20.19142        -1.19100
H         32.85584        53.76297         1.28808
H         30.89972        52.58976         0.73425
H         34.31254        18.36301         0.40779
H         34.88262        54.50583         1.81515
H         36.36953        17.18050         0.82713
H         37.09900        55.46101         2.18681
H         40.16678        15.00771         0.33113
H         38.04603        16.27741         0.27639
H         40.58905        58.05160         0.75713
H         38.49975        56.84298         1.17084
H         42.61950        14.96696         0.68363
H         42.79440        58.21499        -0.44048
H         44.77728        16.13332         0.90945
H         44.73900        57.07156        -1.33794
H         48.58284        18.19476        -0.46743
H         46.55118        17.06612         0.16984
H         48.33079        55.41933        -1.26859
H         46.18597        56.25251        -2.15809
H         50.25654        19.10956        -0.98676
H         50.65692        53.85591        -1.73302
H         52.35878        20.29319        -0.89655
H         52.39597        52.31909        -2.59400
H         56.16640        22.48826        -0.46049
H         54.05082        21.28275        -0.50409
H         55.98071        49.83769        -2.94093
H         53.86576        51.00968        -3.37321
H         57.83430        23.47706        -0.37042
H         57.66866        49.28819        -1.97828
H         59.92207        24.71093        -0.03010
H         61.15124        26.89707         0.17819
H         61.14097        29.33955         0.23124
H         61.10844        31.28936        -0.01486
H         61.15056        33.63594         0.57308
H         61.09886        35.53286         0.94177
H         61.05071        37.98677         1.14742
H         60.32453        39.79790        -0.22607
H         60.34312        42.24421        -0.22845
H         60.96737        44.26018         1.15988
H         60.96948        46.46504         0.02569
H         59.77021        48.30980        -1.18593
