         480
 CSIRO Nanostructure Databank - Neutral Graphene Oxide Data Set
C         37.97154        50.46074         3.05528
C         36.86798        51.18152         3.49068
C         38.09983        53.24311         3.20575
C         36.92948        52.58059         3.55948
C         40.42092        48.99932         2.36521
C         40.31579        50.36743         2.19988
C         39.16806        51.11434         2.67588
C         40.48713        53.22231         2.44765
C         39.23719        52.53364         2.76820
C         40.67034        54.58229         2.77839
C         42.64571        48.88801         1.32284
C         41.53227        48.26551         1.89772
C         42.65222        50.33533         1.20258
C         41.35197        51.09598         1.37035
C         42.72655        53.21499         1.46697
C         41.54805        52.53440         1.80590
C         42.86788        54.59966         1.73888
C         41.82651        55.25885         2.42342
C         44.97851        46.01633         0.49099
C         43.83713        46.73411         0.89592
C         44.92933        48.85335         0.21862
C         43.79375        48.12678         0.89547
C         45.03597        50.30137         0.61785
C         43.81699        51.01641         0.88045
C         45.16816        53.14624         0.88800
C         43.81739        52.50970         0.71826
C         45.23448        54.58146         1.00179
C         44.07802        55.30997         1.33590
C         45.26154        57.40223         0.89850
C         44.12838        56.73378         1.29822
C         47.46842        44.51852        -0.17143
C         47.44560        45.93803         0.06894
C         46.20016        46.66651         0.21905
C         47.44297        48.78260         0.12613
C         46.23459        48.09447         0.25273
C         47.47877        50.21927         0.29519
C         46.26101        50.96178         0.57654
C         47.63032        53.09130         0.77284
C         46.32080        52.39713         0.74527
C         47.66743        54.55157         0.55302
C         46.47239        55.27147         0.72835
C         47.65385        57.36413         0.18371
C         46.47101        56.70179         0.59475
C         47.63291        58.77516        -0.14902
C         49.91617        44.45615        -0.22350
C         48.64260        43.84373        -0.41290
C         49.93070        45.85367         0.36030
C         48.66426        46.63091         0.06208
C         49.85697        48.74654        -0.41853
C         48.68688        48.05586        -0.02807
C         49.79216        50.17000        -0.45375
C         48.69181        50.87253         0.14804
C         50.18005        53.00081         0.13120
C         48.86916        52.30089         0.48854
C         50.05792        54.48248        -0.16761
C         48.87347        55.20252         0.14466
C         50.05955        57.29224        -0.42820
C         48.86595        56.63024        -0.03660
C         50.11114        58.79197        -0.27520
C         48.76503        59.44393        -0.44251
C         52.30167        41.58578        -0.07733
C         51.20172        42.31935        -0.42900
C         52.34257        44.41563         0.20662
C         51.11967        43.74255        -0.20483
C         52.49041        45.84386         0.03294
C         51.22347        46.62251         0.08547
C         52.45193        48.55525        -1.01983
C         51.18912        48.04815        -0.40431
C         52.50200        49.74336        -1.77327
C         50.66937        50.95533        -1.22226
C         51.88303        53.03294        -1.68193
C         50.86730        52.33597        -1.03128
C         52.26695        54.37735        -1.34935
C         51.18106        55.12981        -0.73191
C         52.41744        57.17394        -1.29892
C         51.21092        56.55955        -0.81294
C         52.38688        58.63983        -1.54739
C         51.17345        59.44627        -1.12865
C         52.47918        61.51753        -1.32609
C         51.33636        60.89580        -0.95838
C         54.89824        40.14902         0.67324
C         54.53448        41.47264         1.07987
C         53.39871        42.18840         0.64283
C         55.18651        44.64663         0.58064
C         53.32386        43.61074         0.79646
C         54.99181        45.84667        -0.11823
C         53.71183        46.52688        -0.18228
C         54.89389        48.54083        -1.11650
C         53.68256        47.88884        -0.73897
C         54.90039        49.82795        -1.68586
C         53.69078        50.45047        -2.03938
C         54.78400        52.69114        -2.21236
C         53.70864        51.86974        -2.40313
C         54.69744        54.22086        -2.40462
C         53.48359        54.98097        -1.75742
C         54.79668        57.15387        -2.03883
C         53.54401        56.41579        -1.67604
C         54.86453        58.62966        -1.78338
C         53.65515        59.37128        -1.69283
C         54.92586        61.47808        -1.73462
C         53.67352        60.77780        -1.66936
C         54.97361        62.89592        -1.76016
C         57.47268        40.19144         0.90437
C         56.14791        39.57973         0.68068
C         57.61510        41.72544         0.88787
C         56.44175        42.58914         1.01533
C         57.35504        44.21471        -0.63728
C         56.32370        43.80697         0.38673
C         57.40255        45.72829        -0.76248
C         56.22049        46.44338        -0.61037
C         57.47271        48.55742        -1.21361
C         56.19474        47.89769        -0.81722
C         57.42917        49.81500        -2.01501
C         56.12815        50.51128        -2.18280
C         57.33749        52.76626        -2.01117
C         56.11754        52.02007        -2.51470
C         57.26857        54.17062        -1.90751
C         56.04536        54.87483        -1.99651
C         57.35607        57.06046        -1.74878
C         56.09912        56.35143        -2.10246
C         57.35012        58.54852        -1.80379
C         56.08776        59.31061        -1.76603
C         57.36941        61.45719        -1.41684
C         56.14320        60.74025        -1.66859
C         57.36072        62.86426        -1.33562
C         56.16450        63.56880        -1.56759
C         59.86392        37.26682         0.51713
C         58.68399        38.01146         0.61175
C         59.92970        40.07602         0.26064
C         58.69162        39.40617         0.53051
C         59.97161        41.48778         0.03848
C         58.78376        42.30404         0.18536
C         59.83860        44.05372        -1.23713
C         58.69471        43.55050        -0.39244
C         59.85266        45.57510        -1.41097
C         58.62815        46.37188        -1.16968
C         59.93117        48.47862        -1.52640
C         58.69290        47.74663        -1.36523
C         59.94229        49.88605        -1.72891
C         58.71168        50.57287        -2.14513
C         59.89373        52.79595        -1.76396
C         58.64581        52.09880        -2.14424
C         59.84326        54.18993        -1.62331
C         58.59471        54.93497        -2.05938
C         59.75834        57.01752        -1.13818
C         58.52995        56.36376        -1.56051
C         59.66933        58.45608        -0.76656
C         58.59672        59.27844        -1.38488
C         59.75712        61.38901        -0.74217
C         58.57893        60.73203        -1.10982
C         59.83625        62.82791        -0.78500
C         58.56726        63.64115        -0.85486
C         60.00949        65.55193        -1.51767
C         58.80404        64.94470        -1.57688
C         62.43292        35.83771         0.89857
C         62.35403        37.15672         0.46445
C         61.10837        37.88982         0.32343
C         62.35099        39.98044        -0.23880
C         61.13310        39.31036         0.11196
C         62.37840        41.34792        -0.45299
C         61.17155        42.11113        -0.39980
C         62.39500        44.19055        -0.92438
C         61.16811        43.46678        -0.82650
C         62.39015        45.59040        -1.02113
C         61.17094        46.32975        -1.36548
C         62.36013        48.53609        -1.25199
C         61.15762        47.80462        -1.31911
C         62.37839        49.93531        -1.38122
C         61.14823        50.63683        -1.62057
C         62.39732        52.83848        -1.62763
C         61.10434        52.06360        -1.62348
C         62.23399        54.22317        -1.04857
C         61.02943        54.89883        -1.21115
C         62.20662        57.04381        -0.63847
C         60.94626        56.33155        -0.97080
C         62.14997        58.48369        -0.24088
C         60.83713        59.18552        -0.19904
C         62.15580        61.28322        -0.13424
C         60.94569        60.65610        -0.35398
C         62.34913        62.70367        -0.59101
C         61.05663        63.47060        -0.70576
C         62.37265        65.55398        -0.65728
C         61.16664        64.88959        -0.93876
C         62.50579        66.96594        -0.85239
C         64.90283        35.74565         0.87113
C         63.65417        35.15394         1.09278
C         64.91483        37.18124         0.52378
C         63.61594        37.90767         0.30311
C         64.87106        39.95959        -0.36172
C         63.58936        39.16717        -0.55557
C         64.87261        41.30748        -0.44290
C         63.63704        41.99783        -0.97688
C         64.87323        44.18211        -0.79494
C         63.66484        43.49660        -0.81471
C         64.90668        45.61166        -0.79019
C         63.62314        46.33268        -0.77352
C         64.90118        48.49912        -1.33016
C         63.61692        47.82732        -0.90087
C         64.83162        49.97099        -0.97874
C         63.63348        50.65618        -1.15969
C         64.82259        52.80476        -0.98807
C         63.61461        52.09060        -1.12195
C         64.74531        54.28609        -0.96375
C         63.44547        54.82549        -0.38298
C         64.61502        57.03198         0.04230
C         63.43988        56.31983        -0.32914
C         64.53964        58.37444         0.45983
C         63.22688        59.08444         0.62023
C         64.43542        61.26260         0.79759
C         63.31916        60.58651         0.38024
C         64.39355        62.76071         1.04539
C         63.40351        63.47868         0.16753
C         64.63416        65.59644         0.46273
C         63.47143        64.84402        -0.00135
C         64.68729        66.99239         0.26974
C         63.59632        67.65070        -0.39929
C         67.34970        32.96063         1.45944
C         66.20469        33.69225         1.39768
C         67.38770        35.72487         0.60272
C         66.15474        35.05426         0.93561
C         67.43364        37.05578         0.20395
C         66.16786        37.74330        -0.06422
C         67.41577        39.95229        -0.31676
C         66.15542        39.21557        -0.39464
C         67.38946        41.32911        -0.16266
C         66.08982        42.10886        -0.06189
C         67.37545        44.23262        -0.37438
C         66.18495        43.42186        -0.85378
C         67.34203        45.63096        -0.40142
C         66.10966        46.33685        -0.69203
C         67.32158        48.47261        -0.68079
C         66.13674        47.77179        -0.83269
C         67.32543        49.93216        -1.11762
C         66.09155        50.67639        -0.55101
C         67.28729        52.92959        -0.81831
C         66.07496        52.16514        -0.85685
C         67.28076        54.32045        -0.71654
C         66.01107        55.07806        -0.75422
C         67.08372        57.06670         0.28870
C         65.93387        56.40534        -0.07938
C         67.03777        58.35666         1.01515
C         65.67729        59.03250         1.09641
C         66.87581        61.26051         1.58792
C         65.59300        60.51185         1.34059
C         66.87474        62.74726         1.45769
C         65.74413        63.45249         1.12547
C         66.89686        65.64718         1.41658
C         65.75778        64.91059         1.03066
C         66.96064        67.06413         1.24891
C         65.84135        67.74164         0.68835
C         67.00466        69.87264         0.93581
C         65.89390        69.15878         0.55774
C         69.91384        31.46653         1.67856
C         69.90149        32.81567         1.28802
C         68.61978        33.47527         0.92231
C         69.93701        35.65584         0.51810
C         68.64209        34.92940         0.51532
C         69.95057        37.03108         0.20075
C         68.69335        37.63105        -0.42556
C         69.83971        39.86216         0.26083
C         68.73356        39.21559        -0.56635
C         69.79982        41.37604         0.39970
C         68.58574        42.09601        -0.00981
C         69.77644        44.23271         0.27025
C         68.58123        43.51566        -0.03754
C         69.68581        45.71329         0.57578
C         68.51105        46.40746        -0.07677
C         69.68064        48.57241         0.22432
C         68.50342        47.78349        -0.22812
C         69.70635        50.06242        -0.00967
C         68.61153        50.71156        -0.80111
C         69.78557        52.93647        -0.27690
C         68.59438        52.21362        -0.77194
C         69.87603        54.40888        -0.61316
C         68.52140        55.11607        -0.61180
C         69.62251        57.22059         0.44243
C         68.41673        56.53932        -0.08933
C         69.54560        58.56486         0.86914
C         68.25118        59.21819         1.08396
C         69.38437        61.45674         1.30819
C         68.16930        60.55076         1.41016
C         69.33062        62.65150         2.28750
C         68.03716        63.44323         2.06019
C         69.26913        65.71054         2.39368
C         68.00557        64.95110         2.10184
C         69.31439        67.15178         2.09765
C         68.13686        67.81705         1.61859
C         69.34185        69.98423         1.81317
C         68.15995        69.22588         1.45653
C         69.35838        71.40166         1.77958
C         72.31140        31.52629         1.92571
C         71.10698        30.82096         1.99507
C         72.31450        32.86323         1.54128
C         71.11858        33.53805         1.21262
C         72.34273        35.68228         0.80316
C         71.13126        34.96024         0.84068
C         72.35789        37.04315         0.55243
C         71.16839        37.75256         0.27749
C         72.29121        39.97790         0.46464
C         71.16249        39.21017         0.26359
C         72.25180        41.39705         0.54299
C         71.07127        42.11241         0.47425
C         72.20044        44.33525         0.56480
C         71.01338        43.56629         0.44970
C         72.18866        45.72630         0.48384
C         70.99516        46.45568         0.41406
C         72.12896        48.66078         0.53577
C         70.97554        47.88385         0.40454
C         72.12483        50.06899         0.43409
C         70.98638        50.79481         0.11925
C         72.13396        52.99855         0.37634
C         70.96194        52.24721         0.03106
C         72.09661        54.37688         0.50596
C         70.95112        55.12446         0.17627
C         72.03497        57.25032         0.84111
C         70.87145        56.52808         0.45451
C         71.97470        58.59210         1.14039
C         70.74054        59.28668         1.15213
C         71.83329        61.45744         1.58504
C         70.69750        60.70979         1.40746
C         71.77082        62.87035         1.82572
C         70.60405        63.50052         2.14054
C         71.81299        65.75779         2.32886
C         70.59765        64.94569         2.47637
C         71.75817        67.11399         2.36184
C         70.51916        67.85113         2.26464
C         71.68677        70.04772         2.51533
C         70.53035        69.29567         2.18762
C         71.67431        71.43118         2.47370
C         70.50147        72.11272         2.10258
O         69.03192        51.43472        -1.99163
O         55.41916        56.84211        -3.32063
O         58.34408        59.01169        -2.80094
O         62.52517        58.18360        -1.60123
O         68.55462        33.86903        -0.50662
O         51.40767        47.73079         1.04214
O         55.45546        42.15120         1.91604
O         66.08825        38.18350        -1.47669
O         65.30773        55.02265        -2.06515
O         54.27571        44.28489         1.58441
O         51.30677        58.98971        -2.49946
O         67.58651        64.15679         3.26619
O         69.83688        65.31637         3.67580
O         43.55881        52.71775        -0.81776
O         48.50285        52.60728         1.88336
O         68.51968        56.25950        -1.54296
O         64.35807        38.07263         1.56314
O         51.31730        50.29682        -2.26776
O         65.99223        60.86058         2.71087
O         58.80483        51.31763        -3.39752
O         69.48958        40.45040         1.53682
O         59.79902        58.67886         0.69297
O         66.24206        58.29701         2.24205
O         57.79622        40.95043         2.11504
O         69.28369        49.51777         1.28492
O         56.70421        49.69232        -3.27651
O         52.47541        52.42020        -2.77081
O         63.56318        47.26958         0.43298
O         56.99658        48.68240         0.17083
O         60.54111        45.89342        -2.65879
O         66.21561        50.57144         0.90187
H         65.38772        50.90472         1.30763
O         62.70933        53.06932        -3.05903
H         61.91908        53.48444        -3.46902
O         58.75714        55.05917        -3.51281
H         58.00430        55.58807        -3.85688
O         69.11926        39.52981        -1.92220
H         68.67549        38.87633        -2.50992
O         50.54291        59.05517         1.10505
H         49.86068        58.68415         1.70407
O         66.43969        43.05124        -2.23312
H         66.28582        43.83458        -2.80055
O         69.30542        62.14494         3.62855
H         68.93885        62.86119         4.19607
O         63.44246        54.32365         1.00841
H         62.67609        54.72221         1.47337
O         44.54889        48.89402        -1.21942
H         44.47604        47.96202        -1.51793
O         62.79631        58.90052         1.99961
H         63.50688        59.22949         2.59125
O         67.17315        49.89852        -2.55806
H         67.75676        50.61414        -2.92092
O         70.34539        54.44946        -2.00528
H         69.98206        55.27868        -2.39534
O         59.56830        43.52108        -2.59254
H         60.11470        44.06874        -3.20676
O         62.88942        62.58641        -1.96264
H         62.87030        63.48368        -2.35974
O         54.56204        54.42586        -3.82747
H         55.18568        53.80107        -4.26860
O         42.26142        53.28477        -1.01620
H         41.63977        52.51899        -0.84501
O         63.64634        41.74647        -2.42069
H         63.55812        40.76970        -2.54392
O         68.68803        37.12079        -1.79410
H         68.59962        36.14390        -1.74913
O         65.90955        42.49545         1.32605
H         65.92686        41.68839         1.88172
O         63.49361        38.80102        -1.96055
H         64.37476        38.42109        -2.20802
O         49.90302        45.65330         1.81142
H         50.22497        46.49341         2.21104
O         40.76096        51.17996         0.00950
H         40.74549        50.26869        -0.35470
O         64.90200        48.40345        -2.78477
H         65.67988        48.92994        -3.09810
O         69.39313        45.77050         2.02377
H         70.12758        45.31723         2.48987
O         63.87456        62.86910         2.41806
H         64.52596        62.40739         2.99729
O         51.05915        52.86286         1.28375
H         50.48047        52.92912         2.07844
O         56.22697        52.13870        -3.96998
H         57.04356        51.63586        -4.22300
O         56.89633        43.68778        -1.92814
H         57.69884        43.62042        -2.50671
O         58.23976        64.00188         0.53737
H         59.02240        64.46184         0.90985
O         69.32249        62.06215        -0.02307
H         69.52887        61.36741        -0.68350
H         37.89642        49.36728         2.97965
H         35.94320        50.65677         3.76760
H         38.12047        54.33987         3.25985
H         36.05280        53.15445         3.89003
H         39.63497        48.44770         2.90020
H         39.88512        55.13035         3.31565
H         41.52680        47.17774         2.04640
H         41.92353        56.32071         2.68699
H         44.93483        44.91928         0.51416
H         42.97084        46.15354         1.24449
H         45.23574        58.49846         0.84060
H         43.22788        57.31521         1.53871
H         46.51778        43.97707        -0.27226
H         46.66631        59.29236        -0.22066
H         48.59400        42.78755        -0.71411
H         48.71902        60.50505        -0.72485
H         52.31236        40.50262        -0.26402
H         50.34281        41.80318        -0.87959
H         52.54450        62.60598        -1.20308
H         50.51691        61.47508        -0.51046
H         54.08601        39.52530         0.26743
H         54.05631        63.48056        -1.90398
H         56.19007        38.56128         0.26423
H         56.15894        64.66649        -1.53147
H         59.80623        36.17787         0.64705
H         57.74722        37.47624         0.81963
H         60.13395        66.54694        -1.96856
H         57.95836        65.46147        -2.05258
H         61.50888        35.27256         1.08553
H         61.70469        67.52028        -1.35916
H         63.59515        34.10265         1.40571
H         63.63810        68.73322        -0.57273
H         67.32517        31.96588         1.92499
H         65.27930        33.23859         1.77861
H         66.99508        70.96278         0.80874
H         65.03562        69.70941         0.15308
H         68.97491        30.89777         1.71743
H         68.45236        71.95888         1.50704
H         73.25852        31.02667         2.17151
H         71.09918        29.76258         2.28899
H         73.27849        33.38609         1.49575
H         73.29813        35.18238         1.00591
H         73.31895        37.57296         0.58175
H         73.27985        39.50192         0.51925
H         73.21430        41.91994         0.62268
H         73.17024        43.83068         0.66067
H         73.15417        46.25089         0.47279
H         73.09477        48.17265         0.72425
H         73.08541        50.58183         0.57574
H         73.06025        52.47536         0.64436
H         72.97869        54.87450         0.93165
H         73.01376        56.75516         0.84752
H         72.90669        59.11862         1.38191
H         72.83045        60.99881         1.55370
H         72.72151        63.42083         1.80599
H         72.79112        65.26587         2.24052
H         72.70306        67.67254         2.31830
H         72.60522        69.53556         2.83162
H         72.57711        71.99802         2.73981
H         70.49096        73.21108         2.07607
