         404
 CSIRO Nanostructure Databank - Neutral Graphene Oxide Data Set
C          1.04984         3.58665         0.68482
C         -0.12494         4.28061         0.51326
C          1.08476         6.38347         0.22608
C         -0.10850         5.68038         0.29462
C          1.07751         7.89899         0.13313
C         -0.01400         8.47031        -0.75016
C          1.15340        10.59425        -0.62247
C         -0.01684         9.77559        -1.05518
C          1.16577        12.08855        -0.54444
C         -0.05447        12.84287        -0.90073
C          1.24945        14.81223        -1.77184
C         -0.01609        14.06343        -1.44746
C          1.24315        16.24248        -1.25190
C          0.08056        16.90005        -0.82138
C          1.25109        19.03735        -0.80030
C          0.08606        18.27105        -0.58900
C          1.24886        20.49883        -0.66578
C          0.07985        21.17824        -0.24314
C          1.21928        23.32839        -0.29233
C          0.05347        22.55153        -0.09616
C          1.21332        24.76671        -0.09734
C          0.01781        25.48578         0.13682
C          1.23261        27.59940         0.31998
C          0.02409        26.85670         0.32100
C          1.25309        29.02289         0.56189
C          0.01434        29.76412         0.61451
C          1.18632        31.75731         1.43481
C         -0.03211        31.06078         1.00455
C          1.15130        33.25725         1.73951
C         -0.07864        34.06656         1.62692
C          1.16450        36.17805         1.43158
C         -0.05302        35.42957         1.57569
C          1.20857        37.57099         1.39314
C          3.51010         3.57822         0.84676
C          2.30370         4.27086         0.64943
C          3.56695         6.37741         0.37779
C          2.32105         5.68921         0.41539
C          3.60604         7.78846         0.01606
C          2.43045         8.48307        -0.21965
C          3.70229        10.64035        -0.64234
C          2.44608         9.84371        -0.87789
C          3.71922        12.00381        -0.73748
C          2.48645        12.85464        -0.49632
C          3.71367        14.79853        -1.44344
C          2.52305        14.14178        -1.29293
C          3.70238        16.26895        -1.88262
C          2.44447        16.96116        -1.34671
C          3.65741        19.10950        -1.50747
C          2.44064        18.35118        -1.14167
C          3.61554        20.60391        -1.48999
C          2.40659        21.26500        -0.93088
C          3.65747        23.40900        -0.74692
C          2.41418        22.66271        -0.67854
C          3.66111        24.80184        -0.42440
C          2.43812        25.48988        -0.13932
C          3.69439        27.61658         0.13448
C          2.45248        26.89851         0.10583
C          3.71043        29.00686         0.50022
C          2.47955        29.70236         0.73777
C          3.68355        31.79423         1.27334
C          2.49290        31.11404         1.11880
C          3.75781        33.25477         1.55785
C          2.45633        33.99906         1.68591
C          3.70609        36.16062         1.02529
C          2.40535        35.41629         1.20598
C          3.66753        37.62139         1.22057
C          2.42401        38.27357         1.31730
C          5.96628         3.55015         0.99556
C          4.75194         4.25022         0.82062
C          6.03173         6.35718         0.54169
C          4.77780         5.67355         0.58084
C          6.06970         7.76627         0.21669
C          4.88884         8.43992        -0.10629
C          6.17190        10.59760        -0.23320
C          4.96953         9.82199        -0.71919
C          6.21171        12.05021        -0.56478
C          4.96129        12.74994        -0.92429
C          6.26539        14.80386        -1.50840
C          4.97706        14.08806        -1.25053
C          6.25373        16.31127        -1.45221
C          4.95882        17.03086        -1.44397
C          6.18323        19.16555        -1.16835
C          4.96010        18.39820        -1.39608
C          6.15786        20.55949        -1.14252
C          4.93776        21.35964        -1.60707
C          6.09178        23.46048        -0.98461
C          4.86963        22.75135        -1.02524
C          6.08327        24.86078        -0.76893
C          4.88303        25.53767        -0.45922
C          6.14933        27.67808        -0.17101
C          4.90248        26.94440        -0.15567
C          6.16689        29.06353         0.25640
C          4.95762        29.68036         0.62925
C          6.26016        31.82509         1.15314
C          4.95908        31.05251         1.17213
C          6.20770        33.30621         1.10184
C          5.00711        34.00691         1.21223
C          6.17445        36.21192         1.10597
C          5.00424        35.45577         1.15667
C          6.13802        37.66680         1.19658
C          4.88844        38.30704         1.34459
C          8.42472         3.50964         1.10567
C          7.20748         4.21774         0.96461
C          8.49263         6.33061         0.77243
C          7.23559         5.64694         0.75569
C          8.53915         7.75253         0.57619
C          7.35297         8.44841         0.24137
C          8.62543        10.54608         0.12336
C          7.43023         9.84285        -0.02588
C          8.73722        11.92654        -0.40310
C          7.53163        12.63438        -0.93591
C          8.70310        14.87199        -0.61117
C          7.63639        14.09786        -1.37679
C          8.66242        16.30353        -0.64108
C          7.48092        17.02941        -1.01793
C          8.62149        19.18203        -0.65357
C          7.42900        18.44287        -0.93385
C          8.61904        20.61666        -0.69731
C          7.36732        21.31761        -0.93836
C          8.55384        23.49315        -0.72701
C          7.33206        22.71908        -0.99147
C          8.61697        24.92877        -1.10261
C          7.30063        25.65381        -0.98541
C          8.57262        27.83048        -0.89822
C          7.31567        27.06192        -0.60840
C          8.62323        29.15747        -0.18667
C          7.42360        29.77793         0.27067
C          8.68166        31.87188         0.60461
C          7.47600        31.14297         0.65929
C          8.64536        33.29013         0.83442
C          7.45069        33.99494         0.98130
C          8.57862        36.04375         0.31420
C          7.50458        35.49525         1.21613
C          8.50365        38.23669         0.58833
C          7.30791        38.50592         1.26276
C         10.89264         3.46762         1.16550
C          9.66730         4.17597         1.09782
C         10.93863         6.30796         1.06399
C          9.69111         5.61231         0.97292
C         10.97157         7.74272         0.99696
C          9.78114         8.45674         0.72483
C         10.98827        10.64888         0.76504
C          9.81712         9.88629         0.53360
C         10.99793        12.06643         0.56124
C          9.92058        12.73091        -0.05454
C         11.06182        14.92044         0.10275
C          9.86660        14.17085        -0.19326
C         11.02059        16.34102         0.06805
C          9.83882        17.04159        -0.25591
C         11.02898        19.22151        -0.17406
C          9.83277        18.48800        -0.33603
C         11.06678        20.63107        -0.37085
C          9.83303        21.32046        -0.56164
C         11.11507        23.54374        -0.71602
C          9.85444        22.79076        -0.51279
C         11.15888        24.92481        -0.89153
C          9.89711        25.66071        -0.90124
C         11.09133        27.76727        -0.79356
C          9.85679        27.02814        -0.76324
C         11.06740        29.16684        -0.56067
C          9.85080        29.83236        -0.14118
C         11.14600        31.90534         0.19172
C          9.91421        31.21174         0.25215
C         11.21099        33.33420         0.51552
C          9.91554        34.04438         0.81106
C         10.96052        36.07871        -0.22072
C          9.81446        35.41862         0.28502
C         10.96198        38.27072         0.13042
C          9.78945        38.78786         0.75791
C         13.36167         3.43975         1.02084
C         12.12741         4.14467         1.19541
C         13.37713         6.29658         1.47810
C         12.12696         5.57639         1.25156
C         13.40112         7.76214         1.37505
C         12.21958         8.45032         1.17299
C         13.46685        10.68178         1.53611
C         12.17208         9.93267         1.29743
C         13.49456        12.16600         1.29464
C         12.19144        12.86278         0.91834
C         13.51858        14.92721         0.52659
C         12.26552        14.25404         0.45583
C         13.53686        16.34191         0.39693
C         12.24877        17.05174         0.44554
C         13.54241        19.21473         0.00210
C         12.25850        18.56634         0.28492
C         13.52516        20.61589        -0.25255
C         12.30144        21.33821        -0.30428
C         13.65452        23.57218        -0.54443
C         12.34070        22.81724        -0.38872
C         13.66486        24.96295        -1.08167
C         12.42194        25.64790        -1.10643
C         13.29969        27.95402        -1.70019
C         12.29270        27.10265        -1.20406
C         13.37040        29.32943        -1.36526
C         12.26180        29.91798        -0.69461
C         13.54445        32.02318        -0.47161
C         12.32378        31.29629        -0.32758
C         13.55562        33.45152        -0.29763
C         12.36224        34.11975         0.03137
C         13.44834        36.33716        -0.27424
C         12.26969        35.53581        -0.11280
C         13.43451        37.77497        -0.07142
C         12.29236        38.54946         0.39699
C         15.75116         3.44883         0.40915
C         14.58219         4.09898         0.88133
C         15.88811         6.29092         0.87508
C         14.68968         5.52250         1.25964
C         15.93078         7.69342         1.04077
C         14.72748         8.41968         1.52041
C         15.99307        10.63615         1.06687
C         14.77437         9.94054         1.53574
C         15.95914        12.04970         0.89546
C         14.77038        12.81360         0.93324
C         15.99251        14.93774         0.46235
C         14.76631        14.22008         0.66573
C         15.99642        16.35202         0.25074
C         14.74696        17.05091         0.28257
C         15.96623        19.09804        -0.35730
C         14.74520        18.47011         0.03759
C         15.81839        20.40263        -0.88276
C         14.74725        21.25178        -0.62705
C         16.22666        23.44637        -0.57729
C         14.90999        22.73056        -0.52905
C         16.19653        24.91786        -0.77810
C         15.00127        25.57403        -1.21024
C         16.34920        27.66872        -1.38136
C         15.21559        26.88376        -1.71013
C         16.43203        29.07630        -1.63233
C         14.52552        30.13227        -1.60059
C         16.01724        32.05382        -0.93747
C         14.71735        31.38812        -1.00104
C         15.99005        33.51051        -0.71841
C         14.74138        34.20693        -0.54076
C         15.91278        36.37458        -0.48339
C         14.69486        35.64096        -0.43851
C         15.88902        37.80360        -0.39662
C         14.65279        38.46065        -0.16243
C         18.12142         3.46292        -0.25548
C         16.94546         4.14759         0.19773
C         18.22896         6.27757         0.15899
C         17.01187         5.57673         0.39857
C         18.29344         7.69116         0.35877
C         17.12552         8.41588         0.77096
C         18.41841        10.50815         0.55906
C         17.17161         9.86311         0.83042
C         18.50163        11.98369         0.64027
C         17.23633        12.78253         0.77623
C         18.43286        14.89846         0.22576
C         17.23145        14.22492         0.43569
C         18.45798        16.33100         0.14744
C         17.23091        17.06829         0.08698
C         18.53178        19.19232        -0.15757
C         17.26072        18.47306        -0.21506
C         18.74172        20.62474        -0.32024
C         17.74617        21.45392        -0.94710
C         18.74350        23.55775        -0.35444
C         17.55910        22.79429        -0.71520
C         18.60947        24.99258        -0.10908
C         17.39212        25.63989        -0.52878
C         18.57356        27.81977        -0.31029
C         17.42495        27.05486        -0.68267
C         18.58030        29.23837        -0.51671
C         17.40143        29.90398        -1.05749
C         18.51547        32.10796        -0.84542
C         17.23964        31.35095        -0.96778
C         18.45011        33.54100        -0.42409
C         17.17246        34.25583        -0.61243
C         18.36908        36.42381        -0.43346
C         17.16576        35.68510        -0.49530
C         18.33661        37.84733        -0.57631
C         17.09589        38.52208        -0.51819
C         19.29254         4.13808        -0.47508
C         20.59358         6.24696        -0.47921
C         19.38165         5.55265        -0.26889
C         20.66591         7.61400        -0.27824
C         19.53500         8.36286         0.13513
C         20.86280        10.49845         0.22310
C         19.59479         9.79116         0.29750
C         20.94739        11.84672         0.13137
C         19.71108        12.64933         0.05044
C         20.94249        14.92786        -0.00606
C         19.69198        14.15955        -0.04789
C         20.92588        16.27297         0.17397
C         19.69092        17.02046         0.19700
C         20.84266        19.14010         0.73373
C         19.69300        18.45552         0.24622
C         20.88462        20.51547         0.83586
C         19.85626        21.29003         0.25176
C         20.88895        23.59569         0.95384
C         19.98226        22.77207         0.13803
C         20.80509        24.95776         0.95351
C         19.71555        25.70703         0.35080
C         20.81851        27.93879         0.63339
C         19.70479        27.15825         0.26706
C         20.84854        29.30498         0.37259
C         19.76313        29.96086        -0.23399
C         21.02463        32.20624        -0.22780
C         19.82481        31.39939        -0.58477
C         20.99602        33.54672        -0.15001
C         19.70755        34.28617        -0.10427
C         20.81587        36.46911        -0.85982
C         19.70989        35.81212        -0.07957
C         20.73278        37.81505        -1.11888
C         19.54953        38.54166        -0.85153
O         12.69095        12.83346         2.30769
O         15.64518        23.05182         0.73428
O          8.38049        37.18894        -0.39643
O          9.06974        23.31318         0.64355
O         16.80641        20.82733        -1.76245
O          7.93675        25.32609        -2.32609
O         19.52285        13.28577        -1.25537
O          6.04305        11.58668         0.84267
O          1.02758        11.25034         0.67107
O         15.49318        29.65770        -2.50027
O          3.26227        33.74638         2.87250
O         12.12440        17.94229         1.60800
O         12.60198        10.34793         2.64794
O         18.88079        33.73700         0.99576
O         14.25774        27.42369        -2.57752
O          5.76564        31.22330         2.40302
O          3.60596        16.30125        -3.28966
O          8.33164        11.82155        -1.84355
O         13.00709        23.46830         0.76402
O          1.10052        32.27509         2.81325
O         19.88282        23.24798        -1.23793
O         19.41023        31.76670        -1.95890
O          3.38444        19.86913        -2.74827
O         18.12528        12.52139         1.94705
O         10.83645        33.75332         1.89967
O         10.77238        37.27217        -0.87935
O         14.96666         9.16519         2.75809
O         14.18869         5.79756         2.59851
O          6.29833        15.58155        -2.74916
O          2.95099        35.63583        -0.14059
O          2.62888        13.30758         0.88903
H          2.27828        12.57727         1.45106
O          8.01448        35.70571         2.57363
H          7.45749        35.17897         3.18587
O          2.43300         9.56714        -2.31979
H          3.36414         9.38152        -2.59346
O          8.22829        14.05945        -2.70007
H          7.79927        14.77928        -3.22592
O         19.93609        36.17309         1.32852
H         19.38351        35.55299         1.85735
O          5.19394        21.59561        -3.02404
H          4.71842        20.87438        -3.50728
O          5.21504         9.58579        -2.15647
H          6.05387         9.08316        -2.24321
O          1.31219        14.89513        -3.21769
H          2.13614        15.42414        -3.45373
O          8.48831        28.14486        -2.34000
H          8.33845        27.28236        -2.79769
O          0.78894         8.37840         1.48940
H          1.51952         8.08562         2.07365
H          1.03984         2.50152         0.86138
H         -1.08935         3.75526         0.55204
H         -1.06637         6.20861         0.19126
H         -0.83270         7.81618        -1.08488
H         -0.82255        10.22327        -1.65614
H         -1.01865        12.34523        -0.71721
H         -0.95951        14.53977        -1.75325
H         -0.85889        16.34328        -0.70175
H         -0.85533        18.75169        -0.29268
H         -0.83996        20.61640        -0.03727
H         -0.88463        23.03002         0.21426
H         -0.94575        24.96005         0.16155
H         -0.93433        27.36143         0.49877
H         -0.92135        29.26396         0.33209
H         -0.99683        31.58129         1.07592
H         -1.04229        33.54951         1.73457
H         -1.00038        35.98823         1.60789
H          0.27138        38.13717         1.49741
H          3.48876         2.49286         1.02473
H          2.41077        39.37042         1.39356
H          5.94213         2.46204         1.15519
H          4.86936        39.39699         1.49356
H          8.39900         2.41608         1.22289
H          7.20775        39.46905         1.78569
H         10.87845         2.36768         1.16671
H          9.91954        39.56611         1.52252
H         13.31764         2.35593         0.83556
H         12.52689        39.44234         0.99574
H         15.71154         2.37059         0.19384
H         14.66210        39.55000        -0.00900
H         18.06802         2.37622        -0.41461
H         17.07350        39.62158        -0.54754
H         20.18911         3.59834        -0.81292
H         21.48319         5.69112        -0.80825
H         21.62018         8.12322        -0.46595
H         21.79187         9.91260         0.23715
H         21.92612        12.33535         0.02681
H         21.89757        14.39929        -0.12979
H         21.87999        16.81677         0.20098
H         21.69328        18.55762         1.11129
H         21.75882        21.00558         1.28546
H         21.65848        23.10397         1.56720
H         21.55508        25.51884         1.53007
H         21.69962        27.46696         1.08805
H         21.75551        29.86914         0.62806
H         21.99167        31.68574        -0.16562
H         21.92472        34.10899         0.02450
H         21.73656        35.91404        -1.08847
H         21.59249        38.34117        -1.55963
H         19.52504        39.63000        -1.00168
