         429
 CSIRO Nanostructure Databank - Neutral Graphene Oxide Data Set
C          1.34694         3.24319         0.58780
C          0.14279         3.91775         0.49962
C          1.19124         6.12383         0.83592
C          0.06794         5.32585         0.57952
C          1.14028         7.55737         0.79047
C         -0.04641         8.25474         0.45268
C          1.07848        10.44100         0.35870
C         -0.09300         9.63035         0.28832
C          1.03055        11.89056         0.32046
C         -0.11087        12.65193         0.13062
C          1.04494        14.83055         0.39567
C         -0.09373        14.07197         0.13583
C          1.10154        16.27467         0.23912
C         -0.07141        16.96453        -0.28025
C          1.18624        19.02639        -0.67753
C         -0.05889        18.24486        -0.72550
C          1.25298        20.54052        -0.95999
C          0.03172        21.34002        -1.22392
C          1.39718        23.42786        -1.56941
C          0.09857        22.66401        -1.42170
C          1.24053        24.89393        -1.13058
C          0.18128        25.46399        -0.35241
C          1.11684        27.75391        -0.77949
C          0.12717        26.81655        -0.11920
C          1.19975        29.18210        -0.29840
C          0.01725        29.88495        -0.07922
C          1.19323        32.01246         0.02620
C          0.00702        31.28175         0.06749
C          1.20118        33.48270         0.00516
C         -0.01608        34.21439        -0.30756
C          1.12513        36.39213        -0.12147
C         -0.05111        35.56697        -0.42220
C          1.22224        37.78822        -0.58960
C          3.79848         3.33310         0.82844
C          2.56029         3.95928         0.80504
C          3.78249         6.20171         1.03629
C          2.47226         5.41357         1.07413
C          3.73996         7.69486         0.93681
C          2.35113         8.38389         0.94582
C          3.56470        10.52460         0.49082
C          2.31495         9.80313         0.57906
C          3.55537        11.90844         0.52322
C          2.26537        12.59400         0.71797
C          3.56320        14.83682         0.94815
C          2.25354        14.10374         0.82800
C          3.51782        16.34405         1.02965
C          2.24421        17.03596         0.56344
C          3.14518        19.35117         0.71966
C          2.22345        18.43981         0.21336
C          3.42338        20.64620         0.22308
C          2.43305        21.32877        -0.50877
C          3.76189        23.38615        -0.48217
C          2.56870        22.71029        -0.85183
C          4.10479        24.68115        -0.92077
C          2.30377        25.77800        -1.41754
C          3.79009        27.77720        -0.96467
C          2.44654        27.06611        -0.92145
C          3.70774        29.19140        -0.39130
C          2.44620        29.87834        -0.29143
C          3.66331        31.99931         0.05763
C          2.43849        31.29702        -0.05739
C          3.67155        33.45395         0.44877
C          2.39456        34.16589         0.10516
C          3.69688        36.30706        -0.27176
C          2.43699        35.63751         0.10056
C          3.69166        37.72075        -0.52792
C          2.41720        38.41877        -0.65778
C          6.25926         3.39705         0.61043
C          5.03600         4.06203         0.76832
C          6.15477         6.20274         0.26202
C          5.01662         5.49237         0.66922
C          6.00284         7.61105        -0.28122
C          4.85492         8.41701         0.31387
C          5.98331        10.57682        -0.14645
C          4.80439         9.79768         0.20824
C          6.01247        11.95010        -0.04266
C          4.71676        12.72438         0.01459
C          5.99738        14.82882         0.35354
C          4.82069        14.14223         0.54221
C          6.06078        16.27153         0.61499
C          4.86835        16.98069         0.98611
C          6.12266        19.10642         1.12107
C          4.99910        18.33581         1.34572
C          6.07085        20.54329         0.77528
C          4.79381        21.24057         0.36891
C          6.04961        23.47249         0.71105
C          4.77573        22.73605         0.39955
C          6.16407        24.88985         0.31838
C          5.06694        25.53416        -0.33391
C          6.12445        27.67276         0.00299
C          5.00047        26.98008        -0.41245
C          6.10138        29.12542         0.38043
C          4.88080        29.87710        -0.08844
C          6.12429        32.03400         0.18398
C          4.88782        31.30298         0.08745
C          6.14197        33.44110         0.01263
C          4.91672        34.17125        -0.01084
C          6.14192        36.18765        -0.76121
C          4.88589        35.54605        -0.32661
C          6.14755        37.73862        -0.91578
C          4.87814        38.42451        -0.70170
C          8.66770         3.42462         0.13856
C          7.44562         4.10964         0.29912
C          8.57878         6.23066        -0.35703
C          7.38360         5.52944         0.06918
C          8.55461         7.66554        -0.55530
C          7.30789         8.42706        -0.13110
C          8.45323        10.59923        -0.80925
C          7.13697         9.81980        -0.78014
C          8.45790        12.00092        -0.33964
C          7.27270        12.68219        -0.09077
C          8.44144        14.84376        -0.02264
C          7.26187        14.13069         0.08203
C          8.44409        16.34353        -0.21437
C          7.26533        16.96682         0.49997
C          8.53578        19.20189         0.54880
C          7.40830        18.35374         1.07348
C          8.57182        20.62487         0.97209
C          7.32104        21.33021         1.01551
C          8.53346        23.45606         1.01483
C          7.31119        22.72866         0.94898
C          8.58341        24.85038         0.81844
C          7.37012        25.56745         0.47627
C          8.56842        27.69836         0.26366
C          7.36638        26.98857         0.26678
C          8.59789        29.13774         0.14191
C          7.40907        29.84833         0.18260
C          8.63795        32.04395         0.09249
C          7.40390        31.31708         0.52829
C          8.64110        33.42876        -0.06041
C          7.39778        34.15071        -0.12176
C          8.63606        36.24405        -0.54390
C          7.41938        35.52491        -0.44949
C          8.63800        37.68395        -0.72407
C          7.43344        38.40252        -0.77732
C         11.05057         3.38798        -0.40863
C          9.84817         4.09907        -0.27223
C         11.00550         6.21075        -1.06104
C          9.76942         5.51875        -0.53742
C         11.00442         7.69819        -0.84672
C          9.75346         8.36620        -0.77075
C         11.04136        10.56462        -0.74500
C          9.74826         9.84826        -0.87220
C         11.02589        11.99893        -0.61455
C          9.75956        12.64864        -0.17026
C         10.93759        14.92651        -0.46839
C          9.73316        14.15219         0.00731
C         10.94011        16.31845         0.12148
C          9.77352        17.00598         0.15277
C         11.07928        19.18765         0.55065
C          9.80733        18.48659         0.27444
C         11.06625        20.59786         0.89778
C          9.80038        21.27350         1.10154
C         11.07621        23.49481         1.44528
C          9.77148        22.72893         1.36196
C         11.07045        24.90092         0.98810
C          9.84101        25.53391         0.74507
C         11.11799        27.70109         0.31715
C          9.82402        26.93083         0.27182
C         11.05568        29.16750         0.41168
C          9.88022        29.83771         0.19537
C         11.10571        32.06781         0.27277
C          9.90196        31.29328        -0.18850
C         11.11714        33.46102         0.10340
C          9.88433        34.15579        -0.16395
C         11.11160        36.28720        -0.24930
C          9.88123        35.56119        -0.32628
C         11.11625        37.71024        -0.52385
C          9.88277        38.36607        -0.75193
C         13.55258         3.45323        -0.22932
C         12.32305         4.05463        -0.85102
C         13.54120         6.29120        -0.73649
C         12.24902         5.55001        -0.46363
C         13.50022         7.71883        -0.89414
C         12.24052         8.39709        -0.88772
C         13.48256        10.55611        -1.11957
C         12.22041         9.84297        -0.88363
C         13.46212        12.06628        -1.04454
C         12.20042        12.74224        -0.69162
C         13.42467        14.86742        -0.44166
C         12.24297        14.16583        -0.41403
C         13.49455        16.24325         0.11764
C         12.21994        16.97782         0.47154
C         13.51469        19.13086         0.89589
C         12.24278        18.45133         0.62216
C         13.53474        20.59756         0.85854
C         12.29430        21.28416         1.00637
C         13.56469        23.44961         0.91684
C         12.39097        22.71438         1.51570
C         13.57198        24.85340         0.83459
C         12.32404        25.59796         0.85993
C         13.55583        27.73868         0.79410
C         12.34882        26.99770         0.69591
C         13.58896        29.14521         0.76560
C         12.30147        29.87091         0.79983
C         13.61323        32.05235         0.63636
C         12.31525        31.37368         0.73193
C         13.57744        33.54610         0.80409
C         12.33168        34.20709         0.24146
C         13.58462        36.33533         0.25518
C         12.31851        35.59438         0.05491
C         13.59395        37.85375        -0.20221
C         12.33188        38.40759        -0.65069
C         15.95162         3.58276         0.21124
C         14.72910         4.19015        -0.19407
C         16.04411         6.27171        -0.89310
C         14.72972         5.60201        -0.58226
C         15.99484         7.77419        -0.74193
C         14.75815         8.45325        -0.85807
C         15.97230        10.61183        -0.80709
C         14.76816         9.87062        -0.91760
C         15.95291        12.07893        -0.81196
C         14.75173        12.75088        -0.83224
C         15.96838        14.98491        -0.98312
C         14.68291        14.21960        -0.88463
C         15.99171        16.45231        -0.65175
C         14.71017        17.07778        -0.11940
C         16.01710        19.18049         0.24004
C         14.83064        18.38880         0.57305
C         15.97705        20.57996         0.33751
C         14.75780        21.28862         0.64910
C         15.89390        23.44818         0.15984
C         14.74269        22.73583         0.61440
C         16.01011        24.87882         0.33650
C         14.81291        25.54272         0.67664
C         16.09412        27.74368         0.97323
C         14.80106        26.98307         0.99157
C         16.06071        29.20543         0.78263
C         14.81522        29.88366         0.75877
C         16.07012        32.04168         0.59171
C         14.80705        31.33670         0.67516
C         16.07714        33.47382         0.42364
C         14.86398        34.21313         0.39880
C         16.08836        36.29301        -0.02449
C         14.86807        35.59834         0.18402
C         16.08576        37.70259        -0.37434
C         14.87984        38.39474        -0.58662
C         18.37760         3.66413         0.68141
C         17.17175         4.29773         0.22962
C         18.42555         6.38776        -0.08977
C         17.22007         5.65314        -0.18494
C         18.45344         7.79401        -0.36223
C         17.20133         8.50313        -0.60030
C         18.44158        10.68331        -0.26413
C         17.18719         9.91925        -0.61910
C         18.46650        12.11888        -0.73294
C         17.21656        12.83246        -0.79790
C         18.46648        15.03955        -1.07847
C         17.22015        14.21886        -0.87745
C         18.50325        16.28885        -0.17645
C         17.25368        17.12504        -0.33601
C         18.47386        19.27478        -0.12401
C         17.24301        18.50089        -0.08534
C         18.42059        20.64423        -0.30717
C         17.12627        21.30059        -0.16504
C         18.77138        23.72471        -0.38360
C         16.91524        22.65633        -0.42644
C         18.58857        24.98548         0.22012
C         17.28876        25.62705         0.33736
C         18.55141        27.72739         0.76868
C         17.32151        26.99367         0.65520
C         18.53347        29.16438         0.79647
C         17.29077        29.89558         0.71074
C         18.54389        32.03365         0.56287
C         17.29073        31.32928         0.62055
C         18.55403        33.44835         0.35678
C         17.31295        34.16483         0.26193
C         18.56043        36.26292        -0.15434
C         17.31614        35.57513         0.03262
C         18.55138        37.66129        -0.47167
C         17.32275        38.34425        -0.60877
C         19.56986         4.34428         0.68721
C         20.85313         6.43165         0.28790
C         19.62724         5.71712         0.30571
C         20.88593         7.76594        -0.05670
C         19.68674         8.48905        -0.33770
C         20.88468        10.62851        -0.78740
C         19.71042         9.91767        -0.54134
C         20.89579        12.02275        -0.90984
C         19.70084        12.78863        -0.88090
C         20.90363        14.98633        -0.95703
C         19.75243        14.24889        -0.97003
C         20.88647        16.43148        -0.80757
C         19.76859        17.09722        -0.41591
C         20.98609        19.32528        -0.16280
C         19.75876        18.51515         0.14463
C         20.95324        20.62322        -0.47605
C         19.69669        21.42178        -0.71769
C         20.89002        23.38498         0.61578
C         19.81052        22.83704        -0.11492
C         20.90401        24.74449         0.93220
C         19.77483        25.58280         0.73510
C         20.96636        27.76003         1.12161
C         19.77728        27.02062         0.91315
C         20.95802        29.14245         1.07514
C         19.75969        29.87472         0.87198
C         20.97676        32.04913         0.64868
C         19.76725        31.32145         0.70960
C         20.98879        33.41546         0.41671
C         19.79217        34.14515         0.25168
C         20.99774        36.29057        -0.22009
C         19.79907        35.57175        -0.03582
C         20.98438        37.65736        -0.52572
C         19.78465        38.34071        -0.65777
O         15.49090        27.31123         2.25505
O         13.43063        11.37586        -2.34511
O         10.29656        23.22564         2.66307
O         12.11991        30.65882         2.04108
O          2.07999        13.26658         2.02122
O          8.96704        19.05773        -0.83744
O         15.18144        14.71627        -2.19787
O          5.68274        20.71751        -0.68569
O          1.69048        36.22646         1.22316
O          3.19940         5.75285         2.29815
O          6.09746        36.79845        -2.06926
O          4.97138        23.29222         1.73334
O         13.00912        16.26740         1.49763
O         15.07786        17.22116        -1.51694
O         14.35506        18.50002         1.92939
O          9.09983        10.38670        -2.12364
O          3.86790        18.97902         1.85108
O          1.61592        19.54652        -1.98501
O          3.44248        25.21036        -2.03950
O          9.93390        13.29436         1.15900
O         17.78462        23.32195        -1.30002
O          3.18993         8.25279         2.15461
O         10.59842        27.17405        -0.96956
O         13.54300        37.38126         1.20986
O          3.51216        15.52434         2.25487
O          5.91382        29.08415         1.84943
H          6.34091        29.89690         2.22481
O         13.47138        33.75568         2.26300
H         12.84346        33.08606         2.61281
O          5.67305         7.36456        -1.67243
H          5.84400         8.20352        -2.17348
O         11.02544         6.03835        -2.52390
H         10.21980         6.46862        -2.88155
O          4.34655        12.92832        -1.41501
H          4.58262        12.10983        -1.90393
O         18.52641        15.84173         1.20663
H         18.74893        16.63651         1.75129
O         12.74067        22.58292         2.92519
H         11.88853        22.56593         3.42308
O          7.42988        31.34009         2.03969
H          7.22306        32.25933         2.31856
O          6.71744         9.68821        -2.16782
H          7.53963         9.79979        -2.71252
O          8.21334        16.58374        -1.63505
H          8.32450        17.55655        -1.77565
O          4.09286        27.97646        -2.38757
H          4.12181        27.07934        -2.79224
O          0.62882        27.90356        -2.18232
H          1.33797        28.36608        -2.68018
O          7.48146         8.70418         1.28382
H          7.59937         7.85222         1.75490
O         18.38924        10.79210         1.22253
H         19.17689        11.30766         1.50045
O         12.47791         3.86158        -2.28560
H         11.87342         4.49942        -2.73871
O          3.75376        33.46572         1.92967
H          2.87433        33.19830         2.27303
O         10.70900        15.08970        -1.90219
H         11.48015        15.54697        -2.29883
O          1.67390        23.41846        -2.99200
H          2.51052        23.91831        -3.13080
O         19.74972        18.30985         1.61269
H         20.66026        18.06110         1.88018
O         16.29423         6.02501        -2.33284
H         15.47948         6.27764        -2.81767
O          7.82473        18.12496         2.48604
H          7.10065        17.63905         2.93762
O         10.00592        31.24142        -1.68462
H         10.57289        30.47711        -1.92445
O         12.04808         5.60795         0.97376
H         12.84009         5.22208         1.40438
O         18.37717        15.55807        -2.43717
H         18.09879        14.83035        -3.03147
O         19.62635        21.57481        -2.15856
H         18.85014        22.15124        -2.35175
H          1.38341         2.15097         0.46831
H         -0.78270         3.35323         0.31994
H         -0.91530         5.79185         0.43088
H         -0.98600         7.69618         0.34436
H         -1.06292        10.10480         0.08643
H         -1.06958        12.15707        -0.08123
H         -1.04156        14.56884        -0.11000
H         -1.00827        16.39970        -0.37475
H         -0.95227        18.67439        -1.20032
H         -0.94313        20.82896        -1.23626
H         -0.82651        23.22424        -1.62597
H         -0.58969        24.80653         0.07726
H         -0.70370        27.23594         0.46651
H         -0.93939        29.34394        -0.08040
H         -0.95883        31.79064         0.18694
H         -0.92409        33.64188        -0.54250
H         -0.96016        36.06598        -0.79060
H          0.29320        38.32545        -0.83336
H          3.84374         2.23706         0.73779
H          2.45721        39.47901        -0.94971
H          6.29782         2.30039         0.68603
H          4.86243        39.52468        -0.71501
H          8.70611         2.34158         0.32868
H          7.45665        39.49929        -0.69157
H         11.04565         2.29864        -0.24734
H          9.88563        39.45215        -0.92575
H         13.56306         2.38928         0.05475
H         12.33399        39.39995        -1.12563
H         15.94270         2.52641         0.51793
H         14.90542        39.36437        -1.10591
H         18.33531         2.61137         0.99621
H         17.32977        39.41161        -0.87488
H         20.49634         3.84011         0.99847
H         21.78214         5.90889         0.55788
H         21.84801         8.29617        -0.04704
H         21.83539        10.09069        -0.91167
H         21.85728        12.52393        -1.08298
H         21.89147        14.50274        -0.97056
H         21.84581        16.95914        -0.92024
H         21.96240        18.82975        -0.03499
H         21.90122        21.14839        -0.67221
H         21.76050        22.76437         0.87185
H         21.81025        25.16658         1.38843
H         21.91919        27.23291         1.26792
H         21.91219        29.67297         1.19253
H         21.93886        31.53317         0.76456
H         21.95907        33.92651         0.36198
H         21.96787        35.78387        -0.13252
H         21.93652        38.18787        -0.66612
H         19.77680        39.41227        -0.90293
