         260
 CSIRO Nanostructure Databank - Neutral Graphene Oxide Data Set
C         30.40786        31.72994         0.59015
C         30.52100        32.96200         0.68865
C         30.58398        36.09433         0.57651
C         30.44310        37.26011         0.15543
C         30.42534        40.30514        -0.66452
C         30.40754        41.53123        -0.54145
C         32.75571        28.80785         0.68205
C         31.67714        29.41421         0.60665
C         32.86002        31.58787         0.31237
C         31.47413        30.80756         0.21981
C         32.86036        33.04370         0.59712
C         31.68847        33.80459         0.75038
C         32.90743        35.97747         0.38496
C         31.69910        35.22957         0.68805
C         32.87713        37.26191        -0.15859
C         31.57770        37.95094        -0.48641
C         32.84050        40.19623        -1.10354
C         31.54319        39.39324        -0.93196
C         32.84176        41.72356        -1.03650
C         31.23348        42.64269        -1.01578
C         32.75562        44.32647        -0.10806
C         31.62992        43.77470        -0.13980
C         35.59989        27.20255         1.41858
C         35.36945        28.56126         0.91089
C         34.08851        29.33814         1.02252
C         35.50306        31.45728         0.35756
C         34.12233        30.82794         0.71592
C         35.44863        32.99760         0.38061
C         34.15363        33.76515         0.44911
C         35.43943        35.92503         0.30721
C         34.18959        35.25849         0.79672
C         35.44012        37.26927        -0.25549
C         34.12852        37.96258        -0.56527
C         35.34754        40.23908        -0.41181
C         34.13284        39.46669        -0.83416
C         35.32444        41.63516        -0.27998
C         34.10972        42.41679        -0.58318
C         35.29659        44.55234        -0.01458
C         34.08555        43.84911        -0.14818
C         35.47444        45.97146         0.18400
C         38.04076        27.22812         1.41052
C         36.72255        26.66323         1.43096
C         37.99548        28.58409         1.16037
C         36.72166        29.30692         0.86641
C         37.98661        31.58815         1.20931
C         36.63509        30.80177         1.23207
C         38.00077        33.08358         1.05811
C         36.77369        33.74807         0.49143
C         37.94396        36.05451         0.62497
C         36.72781        35.22807         0.33201
C         37.89068        37.47970         0.26049
C         36.67133        38.08706        -0.06995
C         37.79497        40.24715         0.08755
C         36.54223        39.50499        -0.15972
C         37.78452        41.69968         0.34724
C         36.43666        42.40546         0.45474
C         37.83154        44.68734         0.16412
C         36.52990        43.87898         0.10434
C         37.72218        46.02392         0.98891
C         36.45901        46.68337         0.43194
C         40.40574        24.41504         0.87642
C         39.36892        25.03064         1.21333
C         40.49605        27.11492         0.81566
C         39.33725        26.49377         1.61916
C         40.54535        28.59451         0.87877
C         39.24291        29.34249         0.88487
C         40.64180        31.53204         0.96987
C         39.25364        30.84378         0.86233
C         40.59654        33.05982         0.72924
C         39.31610        33.83432         0.88512
C         40.64037        36.08319         0.70204
C         39.26787        35.35006         0.74925
C         40.52019        37.55990         0.22635
C         39.18088        38.28854         0.47650
C         40.20550        40.38068        -0.82001
C         38.98601        39.50373        -0.47333
C         40.24086        41.87031        -0.48775
C         39.09340        42.45314         0.31429
C         40.44228        44.68494         0.56955
C         39.10336        43.92342         0.55582
C         40.27141        46.15898         0.84977
C         38.99954        46.80239         0.84922
C         40.18387        48.90292         1.18743
C         39.14886        48.18397         1.06181
C         42.82881        24.35583        -0.07766
C         41.63227        24.91984         0.39471
C         42.83673        27.09769        -0.00817
C         41.65928        26.40895         0.42425
C         42.62757        28.47890        -0.58303
C         41.71814        29.33291         0.29662
C         42.51137        31.43268        -0.77673
C         41.61994        30.81256         0.05810
C         42.55709        32.96349        -1.05048
C         41.75885        33.73936         0.02945
C         42.66613        35.91480        -1.03040
C         41.75547        35.25121        -0.01968
C         42.68846        37.39952        -1.19422
C         41.60212        38.23114        -0.57627
C         42.76436        40.40208        -1.35436
C         41.47486        39.64072        -1.11385
C         42.74315        41.90162        -1.21118
C         41.52265        42.66352        -0.69086
C         43.06010        44.71690        -0.26440
C         41.73643        44.01550         0.02241
C         43.35395        45.98212         0.37846
C         41.40977        46.91995         1.18430
C         42.82791        48.82429         1.24298
C         41.47497        48.34734         1.29625
C         43.81667        24.96390        -0.58399
C         45.13927        27.09737        -1.14758
C         44.17337        26.41079        -0.20394
C         45.09525        28.60724        -1.48706
C         43.83459        29.27982        -1.01641
C         45.36435        31.66087        -1.53465
C         43.50377        30.55776        -1.40130
C         45.15678        33.02864        -1.13232
C         43.93471        33.66013        -1.10910
C         45.22560        35.92616        -0.92741
C         43.96764        35.16912        -1.39310
C         45.24516        37.38377        -0.95936
C         44.01886        38.10361        -1.40423
C         45.31165        40.30065        -0.93033
C         44.06778        39.62144        -1.38840
C         45.38333        41.76689        -1.04332
C         44.07549        42.58958        -1.19122
C         45.42100        44.61391        -0.97774
C         44.11779        44.01091        -0.86712
C         45.43376        47.08983        -0.78363
C         44.26067        47.03009         0.16038
C         43.83837        48.18238         0.88908
C         47.58499        27.25974        -1.26691
C         46.52905        26.64620        -1.12330
C         47.81012        28.67961        -1.52359
C         46.41828        29.40023        -1.64466
C         47.75757        31.60310        -1.17796
C         46.43706        30.84775        -1.25285
C         47.62561        32.97114        -0.52241
C         46.35890        33.74354        -0.64301
C         47.69246        35.88334        -0.60611
C         46.38096        35.21543        -0.69254
C         47.65025        37.40037        -0.45342
C         46.37336        38.11385        -0.58849
C         47.65670        40.28630        -0.13361
C         46.43441        39.57717        -0.53360
C         47.69119        41.68926        -0.09872
C         46.55595        42.47449        -0.50139
C         47.57677        44.55848         0.41037
C         46.56763        43.89066        -0.53541
C         47.48539        46.02028         0.20100
C         46.73572        46.95673        -0.02638
C         49.93521        28.69756         0.02415
C         49.02426        29.34641        -0.93877
C         49.69620        31.39489         0.60275
C         48.95404        30.82346        -0.60601
C         49.69091        32.89911         0.77753
C         48.95806        33.66459        -0.31029
C         49.94303        35.82433         0.44502
C         48.84512        35.14937        -0.02780
C         49.96016        37.27698         0.25515
C         48.82579        38.04624         0.13668
C         49.96549        40.16897         1.18778
C         48.79677        39.49684         0.46109
C         50.12883        41.66275         0.93918
C         48.96456        42.41358         0.22247
C         50.08698        44.37015         0.87515
C         48.91163        43.89594         0.36993
C         50.83156        29.21222         0.71607
C         51.71903        31.42461         1.97597
C         50.73460        30.52400         1.37080
C         51.71357        32.65826         2.05940
C         50.72333        33.65159         1.61573
C         52.11265        35.90814         1.65626
C         50.80197        35.18210         1.59380
C         52.31907        37.11835         1.86892
C         51.72433        38.30070         1.31958
C         51.75419        40.38783         2.75461
C         51.21230        39.47096         1.80159
C         51.82532        41.63460         2.67636
C         51.09435        42.47012         1.78266
C         51.08084        43.81233         1.47330
O         37.99543        32.47310         2.37640
O         42.58477        34.50867         0.93948
O         39.09471        30.12163        -0.38126
O         42.55511        46.20123         1.52832
O         48.00205        36.74194        -1.73989
O         42.57602        41.27760        -2.50353
O         41.67069        29.02938         1.72178
O         45.44535        45.85363        -1.58978
O         33.66009        39.73235        -2.19635
O         51.17081        37.95329         0.07002
O         41.77735        33.22459        -2.28874
O         37.08256        34.32119        -0.82463
O         38.52407        35.82139         1.94484
O         32.20295        31.19186        -0.94283
O         36.05716        28.81769        -0.32689
O         46.78358        33.09739         0.64863
O         41.61684        38.30784         0.87328
O         50.15129        41.94156        -0.48626
O         47.30516        29.11226        -2.79083
O         42.09353        36.53631        -2.21264
O         44.34539        31.14738        -2.32992
O         31.38482        38.33600        -1.87446
O         40.45611        42.70305        -1.67539
O         41.38890        43.98749         1.42892
O         34.75705        33.44520        -0.83368
O         39.18073        43.00678         1.67454
O         37.91102        40.72827         1.45852
O         49.41071        30.72607         1.87709
O         40.57537        40.00618        -2.18497
O         48.78243        39.79170         1.94180
O         44.90489        42.26819        -2.33515
O         40.24558        33.64779         2.01358
O         44.19727        38.85210        -2.63163
O         34.86343        37.28632        -1.63798
O         33.65838        42.31868        -2.03440
O         33.99147        30.31829         2.08012
O         44.10401        35.13197        -2.80304
O         44.75032        27.53502        -2.45054
O         49.76340        30.31590        -1.71736
O         49.41303        33.28784         2.14653
O         41.11773        31.35018         2.30948
H         40.74496        32.07503         2.86283
O         44.87455        26.30501         1.03394
H         44.30974        25.85368         1.69484
O         41.04117        36.22961         2.06954
H         41.10163        35.32385         2.45663
O         30.94290        43.00575        -2.29943
H         31.62347        43.62312        -2.63758
O         37.53124        45.71669         2.34911
H         37.58648        46.53497         2.88380
O         45.34409        48.15876        -1.65093
H         46.09787        48.14451        -2.27426
O         34.20323        35.27981         2.26594
H         34.29305        36.20698         2.57162
O         49.79070        33.57833        -1.48507
H         49.28156        33.17225        -2.23180
O         39.64745        26.55857         3.00692
H         40.54601        26.20060         3.16141
O         38.12714        45.09679        -1.19560
H         37.38752        45.65941        -1.51467
O         36.26138        30.76077         2.61299
H         36.59616        31.57029         3.06459
O         47.00906        44.29258         1.72427
H         47.56536        44.74126         2.39629
O         35.83277        31.13590        -0.99441
H         35.36411        31.76461        -1.58946
O         36.01276        42.38336         1.84801
H         36.63752        41.79007         2.33169
O         41.85260        28.27064        -1.81131
H         42.46550        27.91905        -2.49606
O         38.49866        38.91391        -1.69961
H         39.13068        39.11023        -2.43457
O         42.62929        33.06175        -3.42184
H         43.20118        33.90999        -3.40467
O         39.21141        38.68180         1.85055
H         39.63053        37.95319         2.36327
O         48.05799        31.90581        -2.56953
H         48.18373        31.04683        -3.04098
O         50.10456        35.63759         2.76406
H         49.46039        34.94062         3.03067
