         277
 CSIRO Nanostructure Databank - Neutral Graphene Oxide Data Set
C         30.39227        31.66617         0.21378
C         30.35589        32.94628         0.12340
C         30.38692        36.06799         0.17866
C         30.48787        37.30325         0.19532
C         30.49317        40.40151         0.27603
C         30.23521        41.48997         0.89959
C         32.76577        28.77348         0.38802
C         31.70775        29.41765         0.20870
C         32.75170        31.52715        -0.45025
C         31.40649        30.77395        -0.02684
C         32.70732        33.02747        -0.17485
C         31.56021        33.73608         0.14243
C         32.73197        35.92195        -0.34334
C         31.58988        35.20684         0.48422
C         32.79440        37.45621        -0.22624
C         31.61154        38.17266        -0.07198
C         32.79796        40.36618        -0.27367
C         31.57492        39.60242        -0.07676
C         32.80509        41.79441        -0.19595
C         30.95702        42.64675         0.57745
C         32.70059        44.14746         1.50132
C         31.58352        43.60128         1.40562
C         35.53114        27.44677         1.15763
C         35.31444        28.78157         0.74007
C         34.13260        29.34334         0.00961
C         35.28184        31.62986         0.08168
C         33.97279        30.88003         0.30973
C         35.25448        32.98014        -0.10913
C         34.00723        33.73312        -0.53309
C         35.27696        35.86011        -0.66152
C         34.06790        35.19995        -0.03189
C         35.19597        37.26302        -1.14469
C         33.98744        38.17272        -0.78037
C         35.22660        40.46858        -0.51182
C         34.02629        39.67122        -0.57384
C         35.26027        41.73432         0.08622
C         34.04145        42.60514         0.08344
C         35.36538        44.26339         1.59203
C         34.04706        43.60311         1.33256
C         35.61038        45.65809         1.97166
C         37.90174        27.49264         1.78498
C         36.51499        26.84828         1.64106
C         37.77001        28.84991         1.04321
C         36.55120        29.49528         0.73368
C         37.74314        31.59461         0.20021
C         36.55568        30.91858         0.32307
C         37.73377        32.96812        -0.37316
C         36.52980        33.80407         0.01080
C         37.73824        35.85929        -1.03110
C         36.46526        35.19586        -0.61008
C         37.73493        37.34328        -1.14658
C         36.50871        37.85696        -1.45645
C         37.73417        40.38973        -0.61110
C         36.49838        39.96796        -1.02153
C         37.72347        41.86627        -0.26799
C         36.58258        42.24133         0.66503
C         37.73189        44.49061         0.66299
C         36.60640        43.74007         0.91738
C         37.74597        45.99947         0.82702
C         36.50426        46.37844         1.51249
C         40.13575        24.54507         0.78439
C         39.12804        25.28420         1.07615
C         40.22124        27.24881         0.47956
C         38.96041        26.65554         1.13631
C         40.26792        28.74261         0.68124
C         38.97263        29.44390         0.33528
C         40.31499        31.51853        -0.03339
C         39.05656        30.94426         0.60218
C         40.26492        32.99568        -0.19369
C         39.02227        33.64116        -0.71611
C         40.37426        35.86611        -1.25468
C         39.03190        35.11830        -1.09843
C         40.30645        37.39260        -1.03170
C         39.00546        38.12936        -1.22193
C         40.20924        40.22341        -0.27510
C         38.98106        39.64731        -0.93325
C         40.26041        41.68924         0.11253
C         39.02486        42.49316         0.12801
C         40.27970        44.63499         0.00429
C         39.01204        43.84832         0.33675
C         40.33779        46.06549         0.52135
C         39.02735        46.76723         0.76293
C         40.41740        48.66362         1.38180
C         39.32999        48.08416         1.33601
C         42.77819        24.53026         0.92237
C         41.45750        25.11716         0.91584
C         42.78793        27.33770         1.14563
C         41.51259        26.51334         0.86706
C         42.81368        28.61322         0.22121
C         41.56923        29.45689         0.50854
C         42.81147        31.54258        -0.24037
C         41.51138        30.86446         0.03740
C         42.80989        33.04219        -0.28000
C         41.51170        33.78111        -0.09309
C         42.74431        36.00761        -0.23640
C         41.47041        35.25966        -0.37262
C         42.81521        37.35867        -0.94634
C         41.47786        38.06893        -0.82778
C         42.79119        40.27291        -0.36317
C         41.50938        39.47888        -0.33362
C         42.78214        41.71070        -0.32851
C         41.58482        42.41430         0.18045
C         42.74597        44.66405        -0.16229
C         41.58491        43.92366         0.46473
C         42.70497        46.02064        -0.09104
C         41.55321        46.68377         0.57240
C         42.80192        48.73863         0.38271
C         41.80069        48.08399         1.27637
C         43.87115        25.10925         0.93926
C         45.36412        27.26385         0.55268
C         44.14138        26.54732         1.00070
C         45.34169        28.74490         0.22621
C         44.11744        29.42930         0.23710
C         45.32231        31.57449        -0.03994
C         44.10650        30.84112         0.02542
C         45.35271        33.02796        -0.08012
C         44.06820        33.77195         0.06563
C         45.34565        36.03256         0.11867
C         44.02146        35.27100         0.12183
C         45.30750        37.40771        -0.58853
C         43.97250        38.11705        -0.25928
C         45.32826        40.28828        -0.65318
C         43.98863        39.59612        -0.53008
C         45.22808        41.76843        -0.41535
C         44.00512        42.43861        -0.45549
C         45.20940        44.71084        -0.29334
C         43.93572        43.94173        -0.76153
C         45.40241        46.09271        -1.01097
C         43.58565        46.89054        -1.01001
C         43.66173        48.24328        -0.35605
C         47.58806        27.33192        -0.22377
C         46.59319        26.63649         0.02141
C         47.79851        28.74322        -0.28223
C         46.56379        29.44603        -0.05881
C         47.80911        31.58971        -0.30605
C         46.58004        30.88065        -0.12208
C         47.81866        33.05202        -0.31781
C         46.53835        33.73027        -0.19345
C         47.77925        36.00194        -0.52295
C         46.51701        35.20515        -0.40188
C         47.73780        37.47515        -0.20826
C         46.56033        38.14849        -0.14405
C         47.73762        40.33330         0.29064
C         46.41531        39.60631         0.23982
C         47.74845        41.77973         0.25376
C         46.40739        42.50010         0.19002
C         47.70465        44.68523         0.16541
C         46.51136        43.88856        -0.43944
C         47.30859        45.97349         0.33348
C         46.54902        46.75615        -0.38761
C         50.30046        28.88381        -0.61983
C         49.00240        29.42756        -0.46116
C         50.28980        31.56478        -0.60960
C         49.04051        30.87872        -0.46525
C         50.30185        33.07939        -0.76383
C         48.99846        33.77220        -0.44019
C         49.97258        35.82351         0.74866
C         49.11698        35.29532        -0.45041
C         50.05764        37.34212         0.74836
C         49.07436        38.17236        -0.04659
C         50.12427        40.28198         0.81056
C         48.93198        39.61194         0.43255
C         50.05190        41.76677         1.13771
C         48.91418        42.49322         0.44854
C         50.15387        44.56210         0.89536
C         49.03544        43.99910         0.05143
C         51.40598        29.46636        -0.71697
C         52.66939        31.76090        -0.61855
C         51.53647        30.88042        -0.71057
C         52.67927        32.98804        -0.41937
C         51.47486        33.73745         0.01660
C         52.45297        36.00487         0.90502
C         51.36690        35.06386         0.67686
C         52.42471        37.24432         0.95459
C         51.22346        38.05636         1.40952
C         52.40893        40.34837         1.31566
C         51.28844        39.52822         1.11681
C         52.47935        41.62388         1.24902
C         51.44989        42.52464         1.11691
C         51.22126        43.90066         1.01613
O         40.72688        33.52508         1.12365
O         31.69716        42.52964        -0.68504
O         41.75588        36.01820         0.83274
O         42.85283        32.29011        -1.52448
O         41.01242        41.77382         1.37361
O         39.13021        39.13918        -2.29294
O         47.05575        35.56324        -1.71665
O         45.11542        27.00584         1.97184
O         36.40578        39.08439        -2.09505
O         38.25326        35.30363        -2.32326
O         43.30368        46.77468        -2.24569
O         34.78379        43.27371         2.51725
O         38.28073        32.89024        -1.72538
O         40.68053        39.46594         0.88514
O         51.31949        33.82837         1.44945
O         38.13253        46.70067        -0.38450
O         40.96050        29.25120         1.82976
O         43.90362        34.47813         1.34608
O         34.20120        37.62426        -2.16181
O         46.83214        43.69353        -1.81845
H         46.46019        44.46107        -2.33462
O         43.04580        37.19754        -2.35074
H         42.28500        36.68952        -2.73065
O         45.61583        46.02313        -2.38582
H         44.80748        46.37881        -2.86206
O         42.72191        27.72050         2.51710
H         43.62616        27.67192         2.90365
O         32.36265        35.65654        -1.70486
H         32.96873        36.17466        -2.28868
O         36.75806        34.02448         1.43432
H         35.94585        34.47203         1.78611
O         33.72586        31.01673         1.71877
H         33.04074        30.36554         1.98595
O         49.64674        38.34101        -1.38691
H         49.87654        37.43376        -1.72159
O         31.80647        35.31110         1.89907
H         31.09255        34.82047         2.35849
O         49.69760        41.80210         2.55515
H         50.34942        41.25625         3.04705
O         45.04848        45.04078         1.08636
H         45.19241        44.23205         1.63521
O         34.35047        35.22777         1.38615
H         33.51126        35.11170         1.89954
O         37.38165        42.51553        -1.53754
H         38.05159        42.26485        -2.20841
O         45.41142        37.27529        -2.00665
H         45.54137        38.17906        -2.37871
O         42.34391        47.83109         2.54218
H         42.65479        48.66965         2.93861
O         40.29042        44.68524        -1.44392
H         39.60026        45.32589        -1.72606
O         49.45723        44.03443        -1.31158
H         48.65849        43.89179        -1.87910
O         45.81308        40.08815        -2.02684
H         45.30674        40.68614        -2.61792
O         50.59819        33.31394        -2.17135
H         49.97434        32.78184        -2.70760
O         46.05496        42.64589         1.60153
H         45.89977        41.73594         1.95434
O         43.82649        43.99436        -2.20342
H         43.41030        44.86272        -2.44452
O         38.19462        27.70180         3.15312
H         37.58384        28.37166         3.52331
O         34.09552        33.79124        -1.97791
H         34.01408        32.86620        -2.31304
O         32.94713        31.32914        -1.85475
H         32.15735        31.66586        -2.32853
O         41.70087        44.10828         1.88654
H         41.31849        43.30919         2.32127
O         49.86224        35.67679        -1.63461
H         49.33114        35.40428        -2.41477
O         51.11193        37.93809         2.83416
H         50.96458        36.99155         3.04924
O         34.19972        43.57449        -0.99867
H         34.07780        43.11333        -1.85523
O         39.17615        31.16501         2.02315
H         39.57034        32.05305         2.17299
O         45.87505        39.68491         1.60636
H         46.45781        39.15204         2.19095
O         40.10871        27.04853        -0.96799
H         40.06452        26.07895        -1.12684
O         43.69431        38.00057         1.15162
H         44.34242        38.56586         1.63613
O         36.77938        41.55196         1.91680
H         36.11308        41.89940         2.55671
O         34.35045        29.15321        -1.37414
H         34.60195        28.22061        -1.53591
O         45.67895        36.31814         1.50145
H         45.14203        35.70943         2.06266
O         49.34571        35.41171         1.97827
H         49.72749        34.53471         2.22470
O         42.71166        28.09365        -1.12588
H         42.63370        28.84224        -1.75415
O         40.79932        35.62268        -2.61971
H         39.98595        35.65867        -3.17943
O         38.73964        29.32375        -1.08760
H         39.01027        28.41585        -1.37333
