         630
 CSIRO Nanostructure Databank - Neutral Graphene Oxide Data Set
C         22.90484        27.43865         0.11292
C         22.94398        28.78457         0.26525
C         22.97691        31.73824         0.20571
C         22.99627        33.10665         0.21834
C         23.04009        36.04796         0.09303
C         23.06460        37.41235        -0.01672
C         23.15942        40.34213        -0.43498
C         23.17236        41.69026        -0.58558
C         23.17930        44.59791        -0.02039
C         23.11247        45.81794         0.57796
C         25.26088        24.51837        -0.07044
C         24.12424        25.22516        -0.14692
C         25.36676        27.42440        -0.16347
C         24.08270        26.69992        -0.46057
C         25.38731        28.82320        -0.11036
C         24.15512        29.55429         0.04938
C         25.43190        31.67932         0.04160
C         24.18201        30.96828         0.10343
C         25.44896        33.10933         0.11617
C         24.22333        33.84314         0.16924
C         25.48972        35.96789         0.15027
C         24.24239        35.27095         0.14087
C         25.52199        37.38957         0.04936
C         24.29963        38.14014        -0.09279
C         25.64785        40.18763        -0.49579
C         24.34268        39.52703        -0.34353
C         25.69766        41.71914        -0.65182
C         24.40763        42.52637        -0.83049
C         25.60155        44.44674         0.33400
C         24.39466        43.83895        -0.06913
C         25.60073        45.78492         0.83141
C         24.30118        46.40439         1.27765
C         25.50287        48.58837         1.26415
C         24.33615        47.90640         1.22732
C         27.88623        23.01522        -0.42173
C         27.80586        24.40790        -0.49969
C         26.60577        25.15952        -0.08458
C         27.84331        27.42436        -0.46486
C         26.62566        26.68311        -0.09984
C         27.84257        28.80910        -0.42436
C         26.63837        29.53958        -0.17131
C         27.90758        31.67972        -0.14051
C         26.65516        30.96211        -0.10104
C         27.93231        33.08848         0.05642
C         26.69514        33.80997         0.15031
C         27.95750        35.92104         0.38253
C         26.71396        35.22818         0.22558
C         27.95454        37.33072         0.42882
C         26.77095        38.07372         0.15385
C         28.06717        40.19316         0.13881
C         26.84770        39.48808        -0.01335
C         28.10970        41.62760         0.02880
C         26.91407        42.38505        -0.18736
C         28.07155        44.46682         0.40514
C         26.87083        43.76702         0.17174
C         28.06246        45.83923         0.74566
C         26.80498        46.50670         0.96365
C         28.00997        48.63582         1.32613
C         26.79056        47.92092         1.22228
C         28.04607        50.04474         1.58509
C         30.33619        23.02685        -0.75866
C         29.10016        22.34046        -0.55648
C         30.30438        24.41481        -0.92192
C         29.01893        25.13097        -0.89894
C         30.34543        27.34216        -0.70101
C         29.02571        26.66622        -0.90214
C         30.34810        28.82660        -0.56557
C         29.06755        29.56825        -0.87192
C         30.35852        31.67023        -0.39327
C         29.12618        30.99785        -0.38990
C         30.40625        33.07615        -0.11656
C         29.18054        33.77678         0.09811
C         30.43836        35.85096         0.48535
C         29.20166        35.18818         0.36023
C         30.48480        37.25288         0.89059
C         29.16486        38.05642         0.80570
C         30.47071        40.17553         0.72424
C         29.25693        39.50549         0.55512
C         30.51960        41.59425         0.56091
C         29.33531        42.30143         0.26604
C         30.57282        44.46931         0.58862
C         29.36287        43.78871         0.02803
C         30.54442        45.85371         0.82529
C         29.28728        46.56367         0.89342
C         30.50103        48.67714         1.31838
C         29.26826        47.94932         1.18731
C         30.49373        50.07779         1.54943
C         29.22788        50.73181         1.68438
C         32.86781        20.21460        -0.50997
C         31.66381        20.90123        -0.54190
C         32.84376        22.96821        -0.95804
C         31.61345        22.29405        -0.76749
C         32.86144        24.41057        -1.29234
C         31.53029        25.17067        -1.26020
C         32.78702        27.30832        -1.11003
C         31.59021        26.62719        -1.05063
C         32.81966        28.82233        -1.26577
C         31.60312        29.57942        -0.78686
C         32.87587        31.71016        -0.94976
C         31.59189        30.94289        -0.69810
C         32.88683        33.11042        -0.36221
C         31.65824        33.77378        -0.06854
C         32.90244        35.88179         0.38284
C         31.68149        35.17745         0.26690
C         32.93579        37.29875         0.61157
C         31.74123        37.99120         0.81890
C         33.00155        40.15003         0.96506
C         31.70091        39.44045         1.24039
C         32.99921        41.58479         0.89836
C         31.77424        42.29936         0.71461
C         33.00290        44.43678         0.87674
C         31.78046        43.72830         0.71785
C         33.00441        45.85896         0.99955
C         31.76463        46.56594         1.03998
C         32.97928        48.69188         1.29679
C         31.75082        47.97782         1.22237
C         32.97407        50.10892         1.47426
C         31.73595        50.80377         1.63164
C         32.98434        52.89174         1.90102
C         31.78613        52.20770         1.84916
C         35.40464        18.75467        -0.37480
C         35.37812        20.15609        -0.58697
C         34.10343        20.87660        -0.68525
C         35.33349        23.01711        -1.13553
C         34.07175        22.27361        -0.90439
C         35.34939        24.48278        -0.94406
C         34.09404        25.18885        -1.06243
C         35.25533        27.32899        -0.74048
C         34.03248        26.58111        -1.07243
C         35.27420        28.80329        -0.85323
C         34.10597        29.48346        -0.82670
C         35.37140        31.65030        -0.57595
C         34.06182        30.92319        -0.38615
C         35.36040        33.06223        -0.38643
C         34.11501        33.74703        -0.16977
C         35.42228        35.89439         0.17125
C         34.18119        35.09694         0.50395
C         35.43656        37.29278         0.42544
C         34.21105        38.00509         0.69598
C         35.48945        40.11283         1.14958
C         34.19833        39.41070         0.91996
C         35.51715        41.63441         1.30842
C         34.22097        42.30663         0.93418
C         35.47194        44.43714         0.84206
C         34.23187        43.71390         0.89220
C         35.47391        45.84791         0.94408
C         34.23174        46.56372         1.09152
C         35.44241        48.71121         1.20223
C         34.22595        47.98926         1.20527
C         35.44347        50.12015         1.29073
C         34.20937        50.82685         1.48871
C         35.49295        52.92947         1.74780
C         34.22798        52.22976         1.71343
C         35.58335        54.29367         2.13855
C         37.84153        18.74790        -0.25781
C         36.59674        18.07228        -0.23861
C         37.84244        20.16100        -0.42890
C         36.61011        20.84004        -0.63874
C         37.87101        23.04261        -0.67711
C         36.64788        22.27556        -0.97879
C         37.83179        24.44784        -0.65347
C         36.56651        25.14041        -0.77394
C         37.82383        27.35518        -0.58242
C         36.55032        26.59822        -0.55834
C         37.82524        28.75256        -0.65047
C         36.58869        29.49829        -1.09260
C         37.80946        31.65670        -0.69960
C         36.56911        30.95701        -0.71195
C         37.81063        33.07867        -0.58410
C         36.58987        33.77813        -0.39262
C         37.84377        35.91151        -0.30231
C         36.60247        35.21005        -0.18946
C         37.86748        37.29877         0.01913
C         36.69628        37.97863         0.36959
C         37.96169        40.19858         0.49551
C         36.76842        39.39110         0.82197
C         37.92011        41.60365         0.40001
C         36.71619        42.31503         0.66526
C         37.87863        44.46871         0.29498
C         36.70000        43.72954         0.60798
C         37.86750        45.89570         0.41565
C         36.69810        46.55694         0.84153
C         37.90398        48.77424         0.69241
C         36.76112        47.99020         1.28887
C         37.85560        50.15740         0.70783
C         36.66814        50.84671         1.13689
C         37.94176        52.96620         1.33885
C         36.69170        52.25077         1.38430
C         38.00173        54.31785         1.76885
C         36.79223        54.95228         2.17825
C         40.32601        15.93901         0.05548
C         39.13184        16.61796        -0.02530
C         40.31477        18.76154        -0.15236
C         39.09440        18.03659        -0.13769
C         40.31223        20.19594        -0.25079
C         39.08645        20.89453        -0.39745
C         40.30994        23.04761        -0.33424
C         39.08674        22.32698        -0.45697
C         40.29385        24.48210        -0.29389
C         39.04389        25.19652        -0.40267
C         40.23549        27.38464        -0.08569
C         39.01865        26.61441        -0.37168
C         40.27174        28.82196        -0.39614
C         39.04738        29.49746        -0.60800
C         40.27447        31.64008        -0.73004
C         39.04026        30.93094        -0.71332
C         40.27297        33.06966        -0.82219
C         39.05136        33.79094        -0.68902
C         40.29293        35.91491        -0.83304
C         39.06026        35.21175        -0.60528
C         40.34823        37.34760        -0.56633
C         39.18597        37.96815         0.09592
C         40.39038        40.22898        -0.18353
C         39.22471        39.49184         0.30655
C         40.33660        41.65277        -0.25218
C         39.11891        42.34315         0.04260
C         40.27121        44.47892        -0.38099
C         39.09195        43.75952        -0.01672
C         40.19223        45.97731        -0.59083
C         39.04923        46.66203         0.11913
C         40.29395        48.80970         0.00533
C         39.07703        48.05520         0.25182
C         40.29736        50.22703         0.10129
C         38.98826        50.98277         0.14296
C         40.30932        53.03409         0.71848
C         39.11408        52.33560         0.81314
C         40.41273        54.37129         1.21620
C         39.26164        55.01815         1.74633
C         40.58250        57.02620         2.16926
C         39.38183        56.36066         2.21533
C         42.79868        15.94808         0.11413
C         41.56022        16.64196         0.03696
C         42.79841        18.77370        -0.06217
C         41.55803        18.06214        -0.05892
C         42.79647        20.20876        -0.12700
C         41.55247        20.91175        -0.21039
C         42.78794        23.04995        -0.20944
C         41.54881        22.33720        -0.24820
C         42.76729        24.47909        -0.24242
C         41.52949        25.17151        -0.21175
C         42.79750        27.37172        -0.28662
C         41.55946        26.62623        -0.01429
C         42.75779        28.78854        -0.42569
C         41.51116        29.50812        -0.45930
C         42.73467        31.64859        -0.78778
C         41.50872        30.92830        -0.66122
C         42.72132        33.03980        -1.03876
C         41.50158        33.77300        -1.04469
C         42.69122        35.95345        -1.52403
C         41.45352        35.20430        -1.19064
C         42.64115        37.49000        -1.52613
C         41.49673        38.09217        -0.75497
C         42.73120        40.26702        -0.90507
C         41.53925        39.52923        -0.58936
C         42.74226        41.67797        -0.86445
C         41.51136        42.38155        -0.60290
C         42.66761        44.55736        -1.16872
C         41.45767        43.80134        -0.66414
C         42.76487        45.93266        -0.55036
C         41.50199        46.65752        -0.26133
C         42.71962        48.82986        -0.42985
C         41.51610        48.13382        -0.23444
C         42.72101        50.25986        -0.30227
C         41.49467        50.93163        -0.00688
C         42.79535        53.07854         0.20966
C         41.45643        52.43941        -0.06589
C         42.85525        54.41273         0.67539
C         41.66583        55.06586         1.16304
C         43.00271        57.07037         1.63525
C         41.74900        56.39264         1.65015
C         43.98875        16.63618         0.10330
C         45.27290        18.78076         0.03293
C         44.02300        18.05888         0.02080
C         45.27540        20.20743        -0.02972
C         44.02693        20.92062        -0.09689
C         45.26061        23.08012        -0.04387
C         44.02765        22.34947        -0.12206
C         45.22082        24.48859        -0.11032
C         44.00128        25.20693        -0.23805
C         45.25172        27.35045        -0.51496
C         44.00438        26.64231        -0.34480
C         45.22383        28.79624        -0.62244
C         43.98514        29.51255        -0.58034
C         45.22402        31.64708        -0.67297
C         43.98855        30.93137        -0.70166
C         45.25442        33.07595        -0.82462
C         44.02642        33.66621        -1.48131
C         45.19232        35.92325        -0.98223
C         43.99015        35.19729        -1.49949
C         45.17830        37.41967        -0.91790
C         43.95059        38.16611        -1.20377
C         45.22622        40.26057        -1.06856
C         43.97213        39.54641        -1.08335
C         45.22722        41.67429        -1.08735
C         43.98249        42.39416        -1.03202
C         45.16693        44.55191        -1.12456
C         43.98114        43.81886        -1.03848
C         45.19767        45.99983        -1.04183
C         43.99796        46.70958        -0.78946
C         45.15533        48.84816        -0.95461
C         43.95990        48.12037        -0.72626
C         45.06661        50.34765        -1.19369
C         43.91569        51.00228        -0.48411
C         45.23759        53.09026        -0.19900
C         43.97794        52.39172        -0.17063
C         45.29176        54.44134         0.21235
C         44.10482        55.10478         0.69422
C         44.13872        56.44448         1.17668
C         47.70328        18.78755         0.18551
C         46.51168        18.09709         0.12357
C         47.73055        20.20193         0.11542
C         46.51000        20.91812        -0.01600
C         47.75487        23.04954        -0.06356
C         46.53323        22.37503        -0.01482
C         47.80015        24.50365         0.05041
C         46.46766        25.25317         0.02315
C         47.73174        27.28624        -0.74998
C         46.45746        26.65212        -0.42191
C         47.69192        28.80932        -0.84371
C         46.42995        29.51962        -0.64347
C         47.69393        31.65148        -0.43563
C         46.44939        30.93828        -0.56474
C         47.69074        33.09530        -0.39317
C         46.44636        33.78528        -0.69650
C         47.64118        35.97044        -0.67722
C         46.49117        35.22780        -0.86509
C         47.66522        37.41374        -0.82991
C         46.46547        38.13191        -0.95514
C         47.70673        40.24903        -1.13320
C         46.46440        39.54745        -1.08762
C         47.70568        41.68582        -1.24485
C         46.47372        42.36736        -1.22239
C         47.73014        44.59030        -1.38818
C         46.42061        43.82717        -1.40349
C         47.70824        46.04943        -1.10933
C         46.42366        46.73167        -1.06551
C         47.63367        48.93207        -0.95064
C         46.37262        48.15091        -1.04831
C         47.57115        50.32812        -1.56962
C         46.37868        51.07579        -1.03068
C         47.70569        53.13652        -0.67957
C         46.44460        52.40726        -0.64957
C         47.69330        54.49874        -0.27063
C         46.54628        55.12669         0.15173
C         50.06587        20.35810         0.87115
C         48.97775        20.92288         0.22437
C         50.42324        23.05077        -0.21889
C         49.02802        22.29349        -0.42282
C         50.32347        24.56333        -0.00297
C         49.06080        25.25237        -0.21198
C         50.25041        27.42365        -0.36069
C         49.02156        26.60171        -0.46462
C         50.15275        28.85773        -0.75666
C         48.94425        29.54009        -0.64339
C         50.16804        31.60291        -0.03563
C         48.91011        30.94109        -0.39779
C         50.13926        33.15617         0.03712
C         48.87273        33.81927        -0.24547
C         50.15660        36.01335        -0.44454
C         48.86167        35.32073        -0.08461
C         50.15428        37.35878        -0.72305
C         48.91614        38.11823        -0.84619
C         50.18542        40.28597        -0.88067
C         48.92000        39.52033        -1.01020
C         50.24820        41.71430        -1.24753
C         48.96677        42.42340        -1.28191
C         50.24581        44.52418        -1.11848
C         48.95904        43.80523        -1.20466
C         50.20458        46.02247        -1.10486
C         48.89880        46.72705        -0.99584
C         50.27813        48.90554        -0.93043
C         48.93185        48.19406        -0.81937
C         50.20181        50.34036        -1.43562
C         48.90026        51.09086        -1.51464
C         50.18292        53.13051        -0.96509
C         48.92390        52.50808        -1.08470
C         51.22020        21.09565         1.18097
C         52.46863        23.21164         1.24296
C         51.35193        22.44709         0.83442
C         52.77547        24.52028         0.53921
C         51.48829        25.26095         0.19876
C         52.91547        27.36960         0.08644
C         51.54525        26.73768         0.07164
C         53.20379        28.60730        -0.43409
C         51.31796        29.66744        -0.89883
C         52.74334        31.63428        -0.32887
C         51.41898        30.94233        -0.40976
C         52.68305        33.12570        -0.20229
C         51.39952        33.86639        -0.18958
C         52.64863        35.95645        -0.26063
C         51.40849        35.25770        -0.33133
C         52.58290        37.45060        -0.12186
C         51.48109        38.04061        -1.00107
C         52.74745        40.23767        -1.04783
C         51.46945        39.53679        -0.77850
C         52.75191        41.58471        -1.44870
C         51.47084        42.34034        -1.52139
C         52.32540        44.57417        -2.38255
C         51.41283        43.80568        -1.70610
C         52.40577        46.03184        -2.33433
C         51.32768        46.78282        -1.71096
C         52.50820        48.94841        -2.11425
C         51.33191        48.14983        -1.69971
C         52.66641        50.32820        -1.58826
C         51.48331        51.07475        -1.27405
C         51.41044        52.46007        -1.09968
C         54.48506        23.45168         2.61365
C         53.37461        22.73539         2.22570
C         54.71837        24.79527         2.17032
C         53.78333        25.38132         1.28868
C         55.02726        27.49755         1.38378
C         53.90675        26.75335         0.96093
C         55.34320        28.84733         0.76707
C         54.14741        29.54722         0.16646
C         54.84295        31.75293         1.13050
C         53.95809        30.90665         0.21222
C         54.99519        33.21181         0.73423
C         53.87914        33.87558         0.23150
C         55.03904        36.04016         0.36214
C         53.85086        35.29410         0.09448
C         55.07269        37.45476         0.07210
C         53.90775        38.13724        -0.33834
C         55.21946        40.15398        -0.76415
C         53.95167        39.49442        -0.75241
C         55.25859        41.53543        -1.16043
C         54.06624        42.18947        -1.61371
C         55.40910        44.23416        -1.97310
C         54.27964        43.45353        -2.22843
C         55.51086        45.62506        -2.37246
C         53.54754        46.71157        -2.71155
C         55.10150        48.73558        -2.21900
C         53.76433        48.15785        -2.51750
C         55.10338        50.10206        -1.89560
C         53.95514        50.86847        -1.61965
C         56.84447        24.98652         3.49435
C         55.84170        25.55821         2.65315
C         57.13448        27.68217         2.67925
C         56.00243        26.91013         2.22567
C         57.24511        29.08118         2.38161
C         56.21618        29.72178         1.62333
C         57.24259        31.90415         1.99857
C         56.15178        31.10288         1.52138
C         57.27386        33.31796         1.73649
C         56.15203        33.96096         1.10006
C         57.39002        36.12470         1.11376
C         56.19067        35.36994         0.84603
C         57.47191        37.49891         0.73058
C         56.31592        38.15002         0.15955
C         57.69798        40.13918        -0.32824
C         56.37963        39.48224        -0.29982
C         57.74120        41.62705        -0.69739
C         56.46900        42.27312        -1.03685
C         57.62490        44.47061        -0.90478
C         56.49168        43.66273        -1.24880
C         57.44953        45.97966        -0.87455
C         56.38039        46.51378        -1.81111
C         57.56152        48.63600        -1.94539
C         56.33484        47.97259        -2.04073
C         57.94060        25.71101         3.89671
C         59.19308        27.85667         4.00151
C         58.10040        27.07837         3.51753
C         59.28941        29.19898         3.71731
C         58.30112        29.85634         2.92521
C         59.44800        32.07731         3.03771
C         58.34114        31.27364         2.64952
C         59.48812        33.42514         2.75820
C         58.41667        34.07991         2.09064
C         59.65585        36.25693         2.00110
C         58.49465        35.48722         1.74260
C         59.74137        37.58450         1.62374
C         58.67192        38.23546         0.96250
C         59.90734        40.40957         0.69802
C         58.79573        39.59833         0.48338
C         59.94590        41.78286         0.35400
C         58.87122        42.44802        -0.23075
C         59.94370        44.74008        -0.16590
C         58.79260        43.88848        -0.39725
C         59.94505        46.05734        -0.54683
C         58.76499        46.70048        -1.04730
C         58.76127        47.98875        -1.54666
O         44.91956        36.58370         0.31639
O         36.27679        39.49696         2.22615
O         36.08349        22.56745        -2.31463
O         52.97698        32.45051        -1.53553
O         30.36942        27.99530         0.63386
O         50.82253        39.99366         0.44039
O         32.15264        24.73831        -2.52427
O         39.50617        38.53392         1.40011
O         47.71313        27.97125        -2.05409
O         52.42838        29.07257        -1.49484
O         47.17211        25.00945         1.29578
O         43.41700        35.60486        -2.78346
O         51.16908        22.90565        -1.41774
O         52.93709        48.87922        -3.50917
O         49.64739        50.71451        -2.74163
O         58.11187        40.58185        -1.66305
O         28.83985        25.96276        -2.15428
O         54.59047        46.04615        -3.34849
O         26.83984        25.90701         1.17725
O         29.69402        37.59656         2.10045
O         25.89363        40.84294        -1.81191
O         35.73881        26.97217         0.62988
O         50.53315        45.26595         0.12966
O         40.86101        27.05696         1.20632
O         48.23155        48.75006         0.37342
O         50.15807        32.30507         1.23815
O         50.70278        27.41588         1.08169
O         53.32087        43.93195        -3.12622
O         47.05677        44.27302        -2.66533
O         42.25925        46.02501         0.82399
O         44.69050        50.48523        -2.61879
H         45.50784        50.28167        -3.14048
O         33.07030        31.80900        -2.39464
H         32.34323        32.35654        -2.75948
O         23.91705        26.75654        -1.93323
H         23.79736        27.69987        -2.17501
O         29.47900        43.95776        -1.44247
H         28.67675        43.55478        -1.84008
O         39.97209        46.20525        -2.01765
H         39.11503        45.79790        -2.26158
O         24.15278        46.05293         2.71412
H         24.92738        46.43366         3.18088
O         32.82735        29.01612        -2.72536
H         32.88788        29.99215        -2.88478
O         31.57719        39.44717         2.70735
H         30.83748        38.82594         2.92359
O         56.19969        28.50264        -0.38314
H         56.43711        29.33738        -0.84024
O         42.33324        37.87914        -2.90801
H         42.86351        37.28851        -3.49142
O         51.82023        37.83776        -2.39267
H         51.94372        36.87639        -2.54212
O         48.72878        35.52450         1.36995
H         47.84794        35.18831         1.64119
O         29.01386        29.63791        -2.33363
H         28.16770        30.06449        -2.58428
O         47.27951        50.05286        -2.97850
H         48.12819        50.17833        -3.47340
O         44.18778        33.22976        -2.87031
H         43.65580        33.84996        -3.42225
O         52.19654        37.71835         1.25714
H         52.85171        37.29170         1.84726
O         42.48118        44.77607        -2.59874
H         42.48639        43.90318        -3.04390
O         34.31712        34.79019         1.94716
H         33.57116        34.20197         2.19333
O         53.41504        24.13202        -0.71049
H         52.70469        23.60467        -1.20186
O         56.99690        46.28658         0.49659
H         57.72412        46.03674         1.10547
O         54.07177        31.79986         2.38674
H         54.58913        32.32254         3.03573
O         37.05659        47.91067         2.74294
H         37.08720        48.83088         3.08242
O         35.66820        41.91492         2.73543
H         36.16030        41.14777         3.11611
O         50.80380        49.03250         0.42190
H         50.03616        49.00659         1.03831
O         24.34929        42.90873        -2.24164
H         24.69193        42.13257        -2.74314
O         38.64996        51.26659        -1.25363
H         39.37693        51.83958        -1.60394
O         33.81982        30.87260         1.05246
H         34.51283        30.31249         1.46185
O         36.70152        29.49321        -2.56813
H         35.91673        29.96001        -2.92843
O         41.13785        52.75046        -1.48427
H         41.87649        52.39970        -2.02924
O         48.90594        22.05350        -1.84657
H         49.83232        22.23796        -2.19219
H         21.97159        26.88630         0.29874
H         22.04010        29.30634         0.61101
H         22.00784        31.22341         0.24842
H         22.04061        33.64389         0.27839
H         22.06485        35.54412         0.12128
H         22.11070        37.95295        -0.07450
H         22.18177        39.84959        -0.33271
H         22.20532        42.20893        -0.65277
H         22.28171        44.19166        -0.50732
H         22.16506        46.37638         0.60033
H         25.21099        23.42894         0.08000
H         23.15637        24.70202        -0.09938
H         25.47416        49.68679         1.28855
H         23.37850        48.44760         1.25509
H         26.98644        22.42965        -0.18616
H         27.10642        50.59877         1.71090
H         29.09209        21.24862        -0.44949
H         29.19162        51.81201         1.87906
H         32.83858        19.13128        -0.33633
H         30.73932        20.32908        -0.39126
H         32.96165        53.97694         2.06919
H         30.85552        52.77583         1.98042
H         34.46933        18.18165        -0.33858
H         34.67803        54.83568         2.44329
H         36.56072        16.98362        -0.10388
H         36.80714        55.99935         2.50849
H         40.33580        14.84241         0.13364
H         38.19694        16.04292        -0.01094
H         40.65866        58.05735         2.54329
H         38.50572        56.87657         2.62996
H         42.79362        14.85084         0.18310
H         43.05434        58.10281         2.00980
H         44.92423        16.06561         0.16441
H         45.08628        56.99835         1.19578
H         48.64484        18.22506         0.24441
H         46.54063        17.00066         0.15158
H         48.62202        55.08322        -0.30024
H         46.60887        56.18265         0.44341
H         50.00750        19.32133         1.23413
H         50.22895        54.20124        -0.72434
H         52.03484        20.57458         1.70481
H         52.33490        53.05096        -1.02816
H         55.16924        22.99282         3.34024
H         53.20481        21.75323         2.68962
H         56.06383        50.60759        -1.72607
H         54.10498        51.91371        -1.31302
H         56.75660        23.94136         3.81995
H         57.63702        49.69992        -2.20684
H         58.70225        25.24553         4.53893
H         59.95055        27.37215         4.63453
H         60.12993        29.77126         4.13246
H         60.30514        31.61880         3.54834
H         60.37581        33.99497         3.06201
H         60.52343        35.80007         2.49481
H         60.67128        38.13207         1.82787
H         60.77752        40.00627         1.23494
H         60.84014        42.34873         0.65112
H         60.87277        44.29229         0.21187
H         60.87771        46.63952        -0.49439
H         59.70335        48.55637        -1.58841
