         621
 CSIRO Nanostructure Databank - Neutral Graphene Oxide Data Set
C          6.30826        31.82226         0.89402
C          6.27450        33.13040         0.53039
C          8.77194        27.82149         2.40557
C          8.79105        29.21225         2.14249
C          7.58150        29.86837         1.69977
C          8.68754        32.06170         1.53594
C          7.52662        31.21832         1.38814
C          8.67839        33.40938         1.14744
C          7.44239        33.98522         0.62060
C          8.49645        36.20846         0.25697
C          7.37896        35.27109         0.13093
C          8.58048        37.43298        -0.51242
C         11.29987        23.51238         3.05919
C         11.24666        24.95470         2.99484
C         10.03978        25.62284         2.82618
C         11.27065        27.88390         2.86844
C          9.94767        27.08981         2.86654
C         11.30212        29.40418         2.66998
C          9.95778        29.99630         2.29258
C         11.23125        32.23013         1.81953
C          9.90362        31.44788         2.07802
C         11.15868        33.53230         1.14418
C          9.91075        34.15546         1.03330
C         11.08947        36.29736         0.31195
C          9.86453        35.58918         0.71224
C         11.02323        37.61845        -0.13735
C          9.75913        38.19153        -0.54562
C         10.91857        40.21242        -1.40108
C          9.73425        39.51258        -1.09077
C         10.90072        41.60439        -1.76038
C         13.69876        19.19458         2.69458
C         13.71607        20.62273         2.74137
C         12.53888        21.36064         3.00640
C         13.77322        23.52103         3.02345
C         12.48909        22.78169         3.05545
C         13.71310        24.96568         2.69049
C         12.49948        25.69151         2.82462
C         13.49909        27.66683         1.77126
C         12.46558        27.09334         2.54567
C         13.50033        29.06497         1.22726
C         12.34239        29.91837         1.66345
C         13.64588        32.05923         0.99366
C         12.49035        31.42213         1.68626
C         13.61612        33.49624         0.62400
C         12.38093        34.22484         0.76338
C         13.58295        36.34533         0.27410
C         12.33212        35.59158         0.42750
C         13.56544        37.70969        -0.27793
C         12.27148        38.49562        -0.14823
C         13.38057        40.05383        -1.89893
C         12.18032        39.61446        -1.15311
C         13.34285        41.61823        -2.40472
C         12.07556        42.32993        -1.97102
C         13.30437        44.47721        -1.93692
C         12.09038        43.73431        -1.91577
C         13.29476        45.86895        -1.78831
C         15.99974        14.89987         2.06238
C         16.04066        16.28523         2.25248
C         14.83737        17.03395         2.41488
C         16.07662        19.10522         1.83390
C         14.83799        18.43480         2.38602
C         16.13327        20.58273         2.14817
C         14.97181        21.29119         2.49619
C         16.18546        23.45498         2.03845
C         15.03201        22.75713         2.70471
C         16.11671        24.91622         1.72847
C         14.80981        25.58242         2.06428
C         16.38988        27.87444         0.90927
C         14.52932        26.79549         1.42754
C         16.05547        29.27595         0.97305
C         14.76679        29.77584         0.84220
C         15.91370        31.88365        -0.20592
C         14.68954        31.19135         0.37323
C         15.98519        33.36964        -0.17928
C         14.80101        34.09981         0.18284
C         16.05756        36.21285        -0.44614
C         14.88853        35.56398         0.16488
C         15.98986        37.57685        -0.80422
C         14.72581        38.29531        -0.71890
C         15.90726        40.29175        -1.75521
C         14.66232        39.75615        -1.09265
C         15.84809        41.70255        -2.05100
C         14.60568        42.37465        -2.04723
C         15.79561        44.53227        -1.99704
C         14.57815        43.78341        -2.00624
C         15.76019        45.96356        -1.86407
C         14.49977        46.61932        -1.70882
C         15.62343        48.76837        -1.26375
C         14.45956        48.00006        -1.39075
C         15.48888        50.11674        -0.68429
C         18.19157        10.81404         0.42721
C         18.30543        12.07880         1.04473
C         17.12708        12.82907         1.38138
C         18.48230        14.69691         2.29849
C         17.17658        14.11563         1.89675
C         18.53099        16.17221         2.72636
C         17.32088        16.97915         2.28371
C         18.60092        19.08465         2.10236
C         17.36339        18.35876         2.15868
C         18.59525        20.47748         1.90114
C         17.38778        21.22319         1.98856
C         18.71463        23.40403         1.62592
C         17.47755        22.69720         2.09341
C         18.67632        24.88091         1.32436
C         17.42280        25.69316         1.50927
C         18.86337        27.68094         0.82191
C         17.53820        27.13921         1.11371
C         19.08668        29.05384         0.73304
C         17.18785        30.17841         0.87774
C         18.49041        31.77381        -0.53140
C         17.22403        31.21457         0.00683
C         18.41659        33.25132        -0.81137
C         17.18763        34.02405        -0.46873
C         18.44665        36.12395        -1.03217
C         17.23878        35.45445        -0.63455
C         18.40848        37.52104        -1.31321
C         17.16886        38.21824        -1.29251
C         18.33363        40.21724        -2.25325
C         17.09106        39.57579        -1.78089
C         18.31022        41.72870        -2.38043
C         17.04848        42.45503        -2.17337
C         18.29671        44.63657        -2.41584
C         17.03373        43.84991        -2.13886
C         18.24553        46.03476        -1.84538
C         16.96785        46.72703        -1.76038
C         18.15487        48.83040        -1.23282
C         16.88380        48.12472        -1.51188
C         18.29603        50.28569        -1.38594
C         16.35218        51.15007        -0.94296
C         17.86459        53.03235        -0.23097
C         16.59807        52.43278        -0.33310
C         17.89615        54.44101         0.03416
C         19.96410         6.69062        -1.72284
C         19.87057         7.70541        -0.79377
C         18.98438         8.80282        -0.62761
C         20.63465        10.57397         0.32290
C         19.30230        10.01324         0.08028
C         20.74860        11.91923         0.81347
C         19.59422        12.64177         1.21948
C         21.00552        14.67962         1.73466
C         19.73560        13.94640         1.89832
C         21.06053        16.08583         1.87536
C         19.88797        16.84794         2.39172
C         21.07228        18.92727         1.49413
C         19.89478        18.35118         2.16041
C         21.09895        20.37341         1.30904
C         19.87724        21.19613         1.64965
C         20.82327        23.10762         0.33733
C         19.83011        22.58646         1.10939
C         20.76364        24.50358        -0.18530
C         19.67523        25.40085         0.32794
C         20.92165        27.43408        -0.48299
C         19.85252        26.86006         0.22102
C         20.98516        28.84908        -0.76058
C         19.96355        29.67242        -0.19121
C         20.87858        31.62852        -1.29646
C         19.81461        31.04319        -0.57998
C         20.91769        33.12101        -1.34152
C         19.72478        33.95821        -0.94290
C         20.88212        36.08555        -1.46319
C         19.67968        35.41721        -1.18758
C         20.90237        37.48799        -1.64026
C         19.64814        38.21203        -1.63876
C         20.88200        40.24897        -2.49686
C         19.62416        39.53792        -2.04130
C         20.87199        41.69279        -2.00405
C         19.55928        42.44850        -2.00441
C         20.77350        44.56695        -1.80600
C         19.57198        43.90552        -2.03767
C         20.73342        45.99726        -1.60663
C         19.45508        46.64801        -1.53472
C         20.70227        48.83886        -1.17599
C         19.43217        48.06013        -1.12555
C         20.64324        50.29652        -0.85542
C         19.32547        50.98951        -0.80105
C         20.24353        52.87061         0.44564
C         19.17903        52.33230        -0.26910
C         20.12604        54.23178         1.01096
C         19.04158        55.09748         0.48054
C         20.24219        57.14060         1.23335
C         19.10597        56.49480         0.70019
C         20.25009        58.51924         1.48652
C         22.45176         3.79569        -2.12585
C         21.27825         4.50019        -2.02258
C         22.64602         6.61379        -1.81655
C         21.26406         5.97009        -1.97093
C         22.83902         7.96023        -1.22238
C         21.89243         8.53901        -0.43772
C         23.08128        10.61692        -0.13347
C         21.84639         9.93717        -0.09127
C         23.19775        11.83440         0.57061
C         22.04350        12.53205         0.96989
C         23.39843        14.59368         1.21393
C         22.17021        13.93908         1.33543
C         23.55795        16.05603         1.52117
C         22.24076        16.78299         1.51809
C         23.38482        18.81675         0.60751
C         22.23347        18.18714         1.24203
C         23.29739        20.19412         0.17120
C         22.15243        20.93686         0.46366
C         23.18309        22.97300        -0.66030
C         21.95470        22.26653        -0.09952
C         23.17483        24.44112        -0.82207
C         21.98258        25.17511        -0.69584
C         23.07484        27.15270        -1.64170
C         21.99255        26.58008        -0.94063
C         23.12191        28.59566        -2.17571
C         22.00196        29.45362        -1.55910
C         23.21988        31.43862        -2.47814
C         21.98616        30.84967        -1.75556
C         23.16845        33.04685        -2.74246
C         21.97478        33.81714        -2.13944
C         23.36779        35.98609        -2.05422
C         22.04488        35.31162        -1.99342
C         23.36452        37.40645        -1.87283
C         22.15938        38.15137        -1.84820
C         23.34365        40.30557        -2.14731
C         22.17726        39.58201        -2.07649
C         23.36824        41.79335        -2.51643
C         22.09834        42.48151        -2.06303
C         23.29584        44.56969        -1.67385
C         22.04925        43.84176        -1.81238
C         23.23029        46.02157        -1.50041
C         21.93690        46.71182        -1.32411
C         23.07858        48.73769        -0.38784
C         21.94568        48.07072        -0.98181
C         22.95700        50.03644         0.15423
C         21.83110        50.91609        -0.20917
C         22.62490        52.67289         1.48393
C         21.60306        52.24014         0.46603
C         22.50784        54.06309         2.04411
C         21.29028        54.88070         1.68647
C         22.57008        56.95964         2.26806
C         21.52900        56.34475         1.35818
C         22.36435        58.28268         2.65451
C         21.36496        59.15293         2.11090
C         22.78289        61.20650         2.35504
C         21.54344        60.55511         2.18552
C         23.73389         4.41228        -2.09475
C         25.13879         6.42643        -1.77924
C         23.87432         5.78486        -1.87935
C         25.30971         7.82170        -1.60975
C         24.09968         8.67887        -1.48615
C         25.60234        10.72035        -0.77730
C         24.22793        10.06109        -0.89864
C         25.74571        11.47748         0.54696
C         24.54106        12.34765         0.88067
C         25.88429        14.51533         0.67795
C         24.64900        13.83523         1.10901
C         25.81887        15.90364         0.37516
C         24.63367        16.68931         0.66090
C         25.57848        18.65315        -0.61313
C         24.53912        18.03856         0.30844
C         25.71746        20.16189        -0.44762
C         24.47057        20.89548        -0.34431
C         25.69947        23.07365        -0.52851
C         24.45619        22.27162        -0.55541
C         25.70637        24.57470        -0.87212
C         24.32977        25.03943        -1.35919
C         25.98921        27.34661        -2.14312
C         24.10668        26.28101        -1.98610
C         25.72670        28.74004        -1.81785
C         24.49606        29.34384        -1.91782
C         25.78828        31.55807        -1.97005
C         24.44600        30.87299        -1.67758
C         25.81874        33.00220        -2.33925
C         24.52948        33.78676        -2.51199
C         25.83889        35.95042        -2.07341
C         24.55684        35.25491        -2.18676
C         25.87949        37.35124        -2.05982
C         24.64734        38.11365        -1.83421
C         25.85364        40.36786        -2.49295
C         24.63900        39.63691        -1.92198
C         25.82352        41.81244        -2.01280
C         24.63076        42.49226        -2.00243
C         25.71517        44.61934        -1.20291
C         24.53895        43.91615        -1.66028
C         25.67769        45.92805        -0.71927
C         24.48107        46.74330        -0.95725
C         25.42957        48.61125         0.39091
C         24.30806        48.01853        -0.25971
C         25.29089        49.85037         1.02440
C         23.93618        50.48367         1.20936
C         25.05746        52.61601         1.95594
C         23.95552        51.98891         1.45972
C         25.04042        54.01191         2.47518
C         23.74615        54.78359         2.51833
C         25.04912        56.93131         2.70559
C         23.77747        56.27020         2.54761
C         25.21659        58.35557         2.64595
C         24.20345        59.26974         2.92919
C         24.04285        60.62255         2.52338
C         26.56584         8.38996        -1.36401
C         28.02212        10.17783        -0.55766
C         26.76780         9.73487        -0.91198
C         28.25078        11.53870        -0.01855
C         27.06236        12.28107         0.54914
C         28.24445        14.42979         0.04360
C         27.05372        13.76569         0.42550
C         28.22405        15.83832        -0.17675
C         26.98370        16.52324        -0.14968
C         28.22843        18.66068        -0.65573
C         26.91714        17.91551        -0.61064
C         28.18947        20.12245        -0.41550
C         26.90625        20.83224        -0.59154
C         28.26585        23.01407        -0.82431
C         26.98846        22.30678        -0.51153
C         28.25245        24.39386        -1.15298
C         26.95787        25.03791        -1.70350
C         28.25857        27.31201        -1.43440
C         27.00940        26.57266        -1.66292
C         28.18828        28.75071        -1.13906
C         26.85191        29.47334        -1.11376
C         28.21069        31.56480        -1.38882
C         26.94674        30.90944        -1.58220
C         28.37069        32.97035        -1.74513
C         27.10632        33.77665        -2.17572
C         28.31835        35.92129        -1.77997
C         27.08899        35.22801        -1.99472
C         28.38819        37.33050        -1.75258
C         27.16728        38.08471        -2.13368
C         28.38943        40.34510        -1.78550
C         27.18007        39.59982        -2.26033
C         28.35095        41.69519        -1.54227
C         27.10955        42.50232        -1.76096
C         28.15761        44.53188        -0.50980
C         27.02857        43.93566        -1.28971
C         28.09435        45.96569        -0.13342
C         26.82641        46.60761        -0.14237
C         27.86806        48.58038         0.90180
C         26.71171        47.92350         0.37240
C         27.76672        49.87155         1.48377
C         26.43879        50.44810         1.69826
C         27.59943        52.66261         2.27447
C         26.33942        51.89197         2.16874
C         27.53301        54.07468         2.38472
C         26.31150        54.77272         2.47463
C         26.25424        56.16210         2.62808
C         29.42810        12.30885        -0.41094
C         30.68601        14.41715        -0.39096
C         29.47187        13.69428        -0.23718
C         30.72207        15.82876        -0.32764
C         29.47241        16.55518        -0.33647
C         30.71693        18.69279        -0.34605
C         29.49482        17.95500        -0.39265
C         30.74088        20.11487        -0.40732
C         29.47455        20.87760        -0.33158
C         30.72441        22.99925        -0.71986
C         29.48151        22.32820        -0.63258
C         30.70135        24.40284        -0.88758
C         29.48377        25.08508        -1.11261
C         30.72383        27.30977        -0.80937
C         29.53843        26.56308        -1.29661
C         30.62569        28.75216        -0.65334
C         29.35172        29.43422        -0.84730
C         30.46176        31.62116        -0.38953
C         29.32124        30.89358        -0.82973
C         30.46775        33.05721        -0.46564
C         29.48744        33.71593        -1.18457
C         30.86896        35.87373        -1.32106
C         29.57183        35.14319        -1.59587
C         30.80465        37.35828        -1.24068
C         29.61315        38.03941        -1.49963
C         30.87521        40.30181        -1.16666
C         29.64989        39.54544        -1.63653
C         30.88943        41.79086        -1.02393
C         29.58194        42.49851        -1.24992
C         30.72330        44.63814        -0.40202
C         29.46328        43.82707        -0.55648
C         30.59589        46.04474         0.12291
C         29.24314        46.63459         0.31786
C         30.30638        48.62280         1.36911
C         29.14191        47.94230         0.84624
C         30.18034        49.94311         1.84438
C         28.92300        50.59210         1.89464
C         28.81662        51.97675         2.24795
C         31.93598        16.54956        -0.29625
C         33.16350        18.69300        -0.11604
C         31.96070        17.96636        -0.25918
C         33.17683        20.10762        -0.11841
C         31.94735        20.82997        -0.34506
C         33.17926        22.95396        -0.33888
C         31.97254        22.27056        -0.48322
C         33.26551        24.39708        -0.66329
C         31.97764        25.15914        -0.93157
C         33.14804        27.37846        -0.42326
C         31.91436        26.62656        -0.69291
C         33.01047        28.80265        -0.02021
C         31.75028        29.49056        -0.25395
C         32.78592        31.63321         0.43943
C         31.65700        30.91562        -0.01148
C         32.79857        33.05377         0.53291
C         31.54761        33.85716         0.23058
C         33.20311        35.49398        -0.52529
C         31.90447        35.10194        -0.54961
C         33.31268        37.59346        -0.61658
C         31.94733        38.08775        -0.62489
C         33.16064        40.27861         0.01745
C         31.92354        39.58476        -0.39138
C         33.12509        41.71502         0.14684
C         32.00787        42.43046        -0.27171
C         33.15374        44.59204         0.60698
C         32.01925        43.89845        -0.23469
C         32.88110        45.91956         1.15278
C         31.72225        46.63967         0.89544
C         31.54384        47.93759         1.43391
C         34.34367        20.83917         0.18557
C         35.46154        22.96111         0.65512
C         34.35899        22.25775         0.15120
C         35.61336        24.40769         0.49102
C         34.52225        25.14032        -0.26747
C         35.44957        27.30194         0.71298
C         34.45538        26.64083        -0.13157
C         35.24096        28.72859         1.11922
C         34.13097        29.47053         0.40597
C         35.30599        31.67296         0.94737
C         34.09365        30.93752         0.48481
C         35.01590        32.96380         1.67194
C         33.97080        33.73189         0.90635
C         35.32520        35.84249         0.79866
C         34.20627        35.07144         0.45243
C         35.53058        37.28250         0.42455
C         34.33046        38.13000         0.13729
C         35.41146        40.18919         1.05317
C         34.26436        39.53447         0.44182
C         35.31292        41.57545         1.32649
C         34.21793        42.35908         0.87772
C         34.13614        43.71468         1.21303
C         36.54810        25.18969         1.30506
C         37.52174        27.33240         2.08809
C         36.49429        26.58958         1.36476
C         37.61174        28.71071         2.03387
C         36.56752        29.44576         1.27273
C         37.58599        31.64794         2.10309
C         36.55789        30.93649         1.32001
C         37.50005        33.01654         2.30327
C         36.25461        33.76637         2.01515
C         37.64714        35.90460         1.96729
C         36.34067        35.23580         1.70235
C         37.75123        37.25724         1.77410
C         36.70945        38.02415         1.05953
C         36.54860        39.44458         1.38059
C         38.68409        29.48208         2.59375
C         39.78837        31.62915         3.19549
C         38.70394        30.88113         2.60341
C         39.77624        32.99552         3.24375
C         38.65037        33.76039         2.75900
C         38.69323        35.14309         2.60243
O         28.02184        11.71073         1.47194
O         20.86203        49.82644        -2.25342
O         21.47281        34.68294        -3.20258
O         25.34658        33.40372        -3.66624
O         24.73049        12.86723         2.23094
O         30.84006        45.77049        -1.30549
O         35.69525        24.72760        -0.99060
O         18.45833        25.59504         2.56871
O         30.59458        42.47888        -2.28682
O         30.57471        35.34872        -2.65538
O         23.94939         9.86232        -2.34306
O         12.32599        29.33298         0.34507
O         18.20046        32.29655        -1.89434
O         37.09864        30.19746         0.16160
O         19.54189        24.74037        -0.97738
O          9.02272        36.34634         1.62077
O         14.74103        23.18161         4.07750
O         22.13859        52.89853         2.83571
O         18.34119        29.86346         1.58933
O         33.60479        36.49648        -1.41941
O         18.30418        40.90077        -3.58190
O         22.21021        22.32608        -1.54580
O         10.61157        27.59000         4.11712
O         24.29718        54.17854         3.73197
O         26.40856        22.83368         0.75025
O         29.15452        27.02700        -2.63793
O         23.33893        30.89190        -3.76732
O         25.03087        26.71654        -2.92486
O         13.33929        41.57353        -3.79280
O         14.48151        36.19650         1.43079
O         23.13001        58.76835         3.71286
O         17.25033        50.93186        -2.02041
O         33.13656        44.52205        -0.87080
O         28.63033        43.70987         0.64437
O         26.19028        50.80342         3.13320
O         35.03812        31.64636        -0.46626
O         20.76843        33.63154         0.04434
O         21.95047         6.61902        -3.11690
O         18.68825        48.37290         0.09562
O         20.92786         7.71683         0.14093
O         32.84890        24.72902        -2.03063
O         28.09418        33.31696        -3.13665
O         10.59438        32.22764         3.11623
O         27.37750        43.62804        -2.68071
O         34.19876        27.25143        -1.44867
O         20.12810        41.87951        -0.75429
O         18.47044        23.14604         3.05462
O         24.81451        39.01921        -0.62592
O         20.26126        17.75768         3.45868
O         13.62551        31.88775         2.47174
O         20.15717        54.48465         2.49203
O         22.23864        52.19338        -0.86448
O         27.44212        38.78105        -3.44804
O         35.85473        34.75617         3.03272
O         31.48927        38.67191         0.66556
O         27.60172        18.18663        -1.89393
O         19.19747        13.88433         3.28956
O         15.34982        27.10874         0.36768
O         14.88061        31.32993        -1.07924
O         28.74270        20.49348         0.90482
O         20.91835        21.03652         2.65200
O         24.11681        46.77806        -2.38140
O         30.74721        39.89865        -2.55684
O         36.68587        37.63930        -0.38724
O         15.89337        23.90263         0.67115
O         20.89395        40.24310        -3.94394
H         19.99254        40.50753        -4.25367
O         15.95502        19.01766         0.36837
H         15.12937        19.48066         0.11122
O         25.64019        40.43074        -3.92734
H         26.25652        39.77779        -4.34592
O         22.14562        56.33887         0.02666
H         21.43636        56.22936        -0.64210
O         34.43331        32.55494         2.94414
H         34.50826        33.33290         3.54351
O         12.29319        39.12953         1.17404
H         12.30347        38.41241         1.84403
O         13.31365        39.25964        -3.08998
H         13.36094        39.93274        -3.84658
O         25.83032        25.28889         0.38880
H         26.14142        24.63750         1.06311
O         22.94816        33.19132        -4.14927
H         23.27962        32.35589        -4.57595
O         30.98664        34.27232         1.52083
H         31.01895        33.50237         2.12657
O         18.40854        16.16807         4.16702
H         18.93062        15.40081         4.49701
O         11.73630        29.94934         3.93494
H         11.18218        29.53794         4.63468
O         25.79873        10.46444         1.56364
H         25.97881        10.91533         2.41709
O         25.01689        18.47284        -1.94579
H         25.76918        18.52323        -2.57943
O         34.74919        28.68797         2.52323
H         33.91886        28.16669         2.54416
O         14.49620        40.52427         0.13501
H         15.09740        40.16099         0.81799
O         25.71183        11.70536        -1.82592
H         25.29102        11.31032        -2.62525
O         26.44494        29.52743         0.31032
H         27.19261        29.91137         0.81675
O         22.88762        28.42068        -3.57235
H         22.96424        29.32408        -3.99792
O         24.21797        31.13224        -0.26822
H         24.86973        30.58087         0.23521
O         18.33302        44.79472        -3.87947
H         19.13505        45.31122        -4.10790
O         23.37103        41.92525        -3.95867
H         24.17631        41.45880        -4.29583
O         23.43031        49.92855         2.48630
H         24.08489        50.18459         3.17825
O         24.07527        16.13980         2.90529
H         23.41822        15.71457         3.49700
O         26.80526        24.55065        -3.04514
H         27.38902        25.07350        -3.63429
H          5.40987        31.19430         0.80707
H          5.34389        33.57376         0.14677
H          7.86405        27.25086         2.16138
H          6.67430        29.25655         1.58507
H          6.46449        35.61392        -0.37633
H          7.69861        37.77522        -1.07411
H         10.34351        22.96677         3.06959
H          9.10868        25.04552         2.72279
H          8.76306        39.98274        -1.30127
H          9.94563        42.14344        -1.64480
H         12.77152        18.67052         2.97376
H         11.59484        20.80445         3.11501
H         11.14233        44.27950        -1.77600
H         12.33393        46.39695        -1.69214
H         15.02329        14.40695         1.94182
H         13.90154        16.49099         2.61784
H         13.48326        48.46539        -1.19105
H         14.67828        50.25699         0.04647
H         17.18237        10.42116         0.23208
H         16.14782        12.39240         1.13393
H         15.73537        53.02297         0.01661
H         16.98078        55.02476        -0.14857
H         19.17489         6.54771        -2.47631
H         17.97385         8.73713        -1.06029
H         18.21481        57.10158         0.47607
H         19.36766        59.12122         1.22008
H         22.40952         2.69888        -2.19582
H         20.32290         3.96092        -1.94241
H         22.77385        62.29046         2.15827
H         20.69591        61.18522         1.87438
H         24.63075         3.78259        -2.18762
H         26.04257         5.79837        -1.82871
H         26.18378        58.73410         2.28180
H         24.93445        61.21951         2.28115
H         27.45123         7.73551        -1.40832
H         28.89522         9.52102        -0.70127
H         28.47403        54.64291         2.43842
H         27.20614        56.71444         2.65890
H         30.30845        11.77949        -0.80606
H         31.62596        13.85857        -0.51245
H         31.07605        50.47705         2.19384
H         29.74674        52.54209         2.40896
H         32.88723        15.99735        -0.27607
H         34.10849        18.14880         0.02736
H         33.62308        46.34689         1.84480
H         32.39625        48.42543         1.92957
H         35.26043        20.30286         0.47010
H         36.27295        22.40146         1.14343
H         36.14511        42.07859         1.84076
H         34.82733        44.13037         1.96115
H         37.31168        24.65096         1.88461
H         38.29770        26.75357         2.61182
H         38.65499        37.79312         2.10327
H         37.34831        39.92677         1.96453
H         39.52031        28.94258         3.06540
H         40.65540        31.07455         3.58368
H         40.64133        33.53933         3.65077
H         39.60837        35.68220         2.89180
