         234
 CSIRO Nanostructure Databank - Neutral Graphene Oxide Data Set
C          1.36768         1.94001        -0.70198
C          1.28636         3.34951        -0.55493
C          2.57217         1.29316        -0.88827
C          2.42624         4.14791        -0.51322
C          1.15780         6.31217        -0.32068
C          1.08612         7.63205         0.00421
C          2.39887         5.57239        -0.39507
C          2.30206         8.38987         0.37092
C          1.11707        10.69684         0.48068
C          1.17682        12.04673         0.41886
C          2.33260         9.88603         0.64993
C          2.41629        12.78228         0.61629
C          1.28883        14.99578         0.27346
C          1.32932        16.40057         0.07188
C          2.40010        14.23924         0.63280
C          2.49445        17.14161         0.22526
C          2.63608        18.51189        -0.17964
C          3.80328         2.02335        -0.90147
C          3.78475         3.46562        -0.42824
C          4.99939         1.42743        -1.22873
C          4.85270         4.29210        -1.14294
C          3.63065         6.30740        -0.34327
C          3.57751         7.77302        -0.12070
C          4.86425         5.70763        -0.60722
C          4.85848         8.54095         0.05909
C          3.63423        10.62206         0.68278
C          3.60031        12.06827         0.81731
C          4.82172         9.90922         0.64434
C          4.86560        12.79254         1.10992
C          3.62175        14.96304         1.03935
C          3.66305        16.49264         0.82590
C          4.91730        14.27002         1.01738
C          4.97826        17.13222         0.71623
C          3.83405        19.17578        -0.08759
C          5.04745        18.52781         0.34408
C          6.24537         2.17056        -1.30181
C          6.19097         3.59869        -1.13087
C          7.45625         1.53435        -1.53982
C          7.38361         4.34198        -1.02355
C          6.10066         6.42135        -0.46767
C          6.12590         7.78336        -0.05490
C          7.34331         5.73904        -0.67132
C          7.35302         8.45991         0.08673
C          6.12034        10.55781         0.92240
C          6.16242        12.04176         1.11658
C          7.38549         9.86118         0.57005
C          7.44139        12.76294         0.89645
C          6.11103        14.95997         1.06675
C          6.12844        16.40117         0.97040
C          7.41531        14.25970         0.72502
C          7.39164        17.13335         1.20260
C          6.27738        19.18847         0.34655
C          7.47758        18.54672         0.76711
C          8.70572         2.31655        -1.84344
C          8.63939         3.70466        -1.24923
C          9.99054         1.61983        -1.45561
C          9.82833         4.39746        -0.98359
C          8.56795         6.42316        -0.45023
C          8.57851         7.80871        -0.10692
C          9.79718         5.72604        -0.54562
C          9.83974         8.54682        -0.04628
C          8.54660        10.69201         0.07789
C          8.61287        12.10026         0.63298
C          9.83684         9.92938         0.08081
C          9.89395        12.80289         0.59204
C          8.70104        14.92007         1.16010
C          8.68208        16.36233         1.43423
C          9.91802        14.24045         0.92874
C          9.97473        17.13040         1.40060
C          8.71354        19.19014         0.69730
C          9.95829        18.54021         0.94478
C         11.18332         2.30431        -1.34311
C         11.13203         3.78929        -1.33886
C         12.43429         1.66004        -1.06149
C         12.43915         4.56189        -1.01654
C         10.98220         6.32711         0.15163
C         11.08291         7.82568        -0.03703
C         12.30093         5.68522        -0.13066
C         12.31992         8.46164         0.03875
C         11.05125        10.70301        -0.13014
C         11.05628        12.12674         0.26765
C         12.39798         9.91086        -0.19877
C         12.36016        12.82466         0.22914
C         11.16260        14.90422         1.02524
C         11.26193        16.34918         1.28831
C         12.42149        14.16574         0.87972
C         12.49972        17.05470         0.86308
C         11.16545        19.16875         0.65315
C         12.42137        18.48593         0.58933
C         13.65416         2.33308        -0.90608
C         13.77276         3.83397        -1.18093
C         14.84883         1.63051        -0.66262
C         14.88895         4.44168        -0.35586
C         13.44881         6.25717         0.64571
C         13.53925         7.76827         0.38257
C         14.76417         5.58224         0.35656
C         14.73737         8.45294         0.54541
C         13.65784        10.60344         0.08523
C         13.66440        12.07235         0.05412
C         14.80707         9.89298         0.40843
C         14.94380        12.74120         0.36508
C         13.75322        14.90034         0.86553
C         13.68572        16.37106         0.74281
C         14.97813        14.18645         0.41423
C         14.93099        17.09612         0.40648
C         13.54022        19.13910         0.06813
C         14.77105        18.45582        -0.15330
C         16.12163         2.26705        -0.57355
C         16.23458         3.79516        -0.61277
C         17.30122         1.56251        -0.51302
C         17.33817         4.23527         0.33733
C         15.92476         6.23814         1.00326
C         15.95438         7.74971         1.03808
C         17.19628         5.47050         1.12991
C         17.28029         8.42680         1.08363
C         16.09382        10.56599         0.54620
C         16.11253        12.00816         0.44347
C         17.29172         9.85284         0.76437
C         17.40445        12.77422         0.63114
C         16.16741        14.85510         0.15088
C         16.20078        16.33092         0.12234
C         17.40428        14.14295        -0.04072
C         17.27464        16.93391        -0.70206
C         15.77686        18.96769        -0.94374
C         16.97176        18.23346        -1.28690
C         18.61903         2.30909        -0.56170
C         18.53296         3.57809         0.27230
C         19.79113         1.44374        -0.18736
C         19.69733         4.08842         0.97725
C         18.44522         6.21664         1.57043
C         18.42278         7.71120         1.43896
C         19.70359         5.40052         1.52581
C         19.74854         8.41256         1.38943
C         18.55397        10.55816         0.57608
C         18.58695        11.91401         0.31634
C         19.82558         9.81796         0.80453
C         19.81738        12.61678        -0.07559
C         18.55733        14.79323        -0.52272
C         18.43057        16.20019        -0.98269
C         19.82217        14.05526        -0.46375
C         19.46587        16.90524        -1.78925
C         17.73146        18.71433        -2.33433
C         19.04494        18.15688        -2.59433
C         20.80588         1.89583         0.57126
C         20.82651         3.24040         1.13428
C         21.93052         3.66897         1.88720
C         20.79810         5.74853         2.33393
C         20.82296         8.08819         2.35820
C         21.90939         4.91529         2.51045
C         21.83980         8.94642         2.66929
C         20.99765        10.66098         1.16047
C         21.12319        11.93702         0.43260
C         21.94937        10.22245         2.03601
C         22.27679        12.80960         0.61504
C         21.12219        14.54114        -0.69248
C         20.70838        16.29595        -2.32538
C         22.28977        13.99476        -0.04083
C         21.31748        16.70037        -3.48207
C         19.66910        18.42145        -3.90256
C         20.73298        17.70089        -4.33275
O         16.63804         4.20857        -1.92180
O         21.51440        15.57509        -1.47810
O         20.16964         8.64799        -0.00469
O         12.99967        12.74900        -1.09083
O         15.62461         6.96104         2.24389
O         13.24501        14.27670         2.10258
O         20.67498        11.82098        -0.95185
O         15.98390        16.96842         1.43578
O         19.85980        18.25282        -1.36119
O         20.76288         6.92193         3.10773
O         11.71592        10.38573        -1.39989
O          4.13543         8.52663        -1.25386
O          2.28314         8.88080         1.74605
O          6.98780         9.93346         1.96528
O          3.42272        15.89404         2.14008
O          7.86469        16.82793         2.56625
O         11.75618         4.60966        -2.33779
O         17.58982         5.50039         2.53788
O          5.50497        12.38454         2.38661
O         10.77351        16.84716         2.59142
O          8.24409        10.90641        -1.35312
H          9.09391        11.00631        -1.83515
O          4.14944         3.44830         0.97941
H          3.47701         2.92126         1.45924
O         10.63264         6.10472         1.56243
H         11.46506         6.18459         2.09688
O         17.52727        13.05045         2.07680
H         16.76698        13.61700         2.33308
O          7.43613        14.43194        -0.76189
H          8.13869        13.84574        -1.12060
O          8.74346         2.47234        -3.31420
H          7.91619         2.92255        -3.58691
O         14.13989         3.96211        -2.56585
H         15.14225         4.04161        -2.61456
O         18.77659         2.65988        -1.96340
H         18.02778         3.30292        -2.17723
O          4.44604         4.37443        -2.54510
H          4.99317         5.06102        -2.98089
O         13.18580         6.08091         2.07445
H         13.98389         6.44277         2.54617
H          0.43361         1.36110        -0.72231
H          0.28645         3.80429        -0.51546
H          2.59303         0.21098        -1.08500
H          0.21881         5.77374        -0.51297
H          0.10381         8.11526         0.10374
H          0.14778        10.18550         0.39942
H          0.24390        12.60913         0.28143
H          0.34377        14.49235         0.02767
H          0.42618        16.89519        -0.31466
H          1.74985        19.03653        -0.56646
H          5.02197         0.35414        -1.47437
H          3.89302        20.23192        -0.38899
H          7.47321         0.44269        -1.68133
H          6.32796        20.23780         0.01888
H          9.98089         0.52585        -1.32907
H          8.74146        20.23485         0.35095
H         12.43165         0.56057        -0.98095
H         11.14582        20.22455         0.34175
H         14.80190         0.53529        -0.53724
H         13.45204        20.18756        -0.25373
H         17.29906         0.46441        -0.61588
H         15.65167        19.96304        -1.39556
H         19.82962         0.43172        -0.61800
H         17.38140        19.57182        -2.92721
H         21.66814         1.24627         0.78749
H         22.79227         2.99960         2.01937
H         22.72976         5.23533         3.16529
H         22.58604         8.64626         3.41501
H         22.82120        10.84578         2.27636
H         23.13712        12.48854         1.21677
H         23.18847        14.62672        -0.04365
H         22.28958        16.26575        -3.74738
H         19.19103        19.16923        -4.55111
H         21.18769        17.89897        -5.31264
