         732
 CSIRO Nanostructure Databank - Neutral Graphene Oxide Data Set
C         23.07377        24.57324        -1.24773
C         21.87512        25.26168        -1.35337
C         23.05696        27.39250        -1.34751
C         21.86343        26.66115        -1.38319
C         23.04647        28.85267        -1.28966
C         21.83915        29.57007        -1.14849
C         23.05485        31.67548        -1.04414
C         21.84413        30.95005        -1.05859
C         23.05499        33.10966        -0.83812
C         21.87038        33.86923        -0.88160
C         22.98881        35.91141        -0.15294
C         21.84678        35.24041        -0.60729
C         23.00311        37.30767         0.17496
C         21.78984        38.02936         0.34534
C         22.99013        40.14013         0.61782
C         21.78250        39.38243         0.59778
C         22.98196        41.55344         0.81213
C         21.80104        42.24379         1.25459
C         22.87534        44.41597         0.85672
C         21.75524        43.60045         1.34504
C         22.86814        45.94140         0.96410
C         21.88888        46.62939         1.82963
C         23.32351        48.61676         1.95475
C         22.13847        47.86642         2.31974
C         25.59081        23.20324        -0.76171
C         25.56694        24.58360        -1.07230
C         24.30409        25.27077        -1.21552
C         25.54957        27.38689        -1.44252
C         24.30261        26.68982        -1.30996
C         25.50895        28.84834        -1.65695
C         24.26163        29.57220        -1.33817
C         25.55306        31.69940        -1.09073
C         24.28687        30.97620        -1.16431
C         25.52796        33.10300        -0.71110
C         24.29469        33.75395        -0.54175
C         25.53749        35.87938         0.17117
C         24.22361        35.12483        -0.00931
C         25.49252        37.34919         0.16181
C         24.24298        38.02779         0.27289
C         25.45496        40.18854         0.37306
C         24.22697        39.44987         0.41377
C         25.44844        41.60626         0.48481
C         24.19443        42.31509         0.66284
C         25.43804        44.47378         0.94688
C         24.16174        43.71607         0.67582
C         25.44545        45.93216         0.52832
C         24.15540        46.68924         0.68687
C         25.47097        48.86666         0.59371
C         24.26421        48.10327         1.11920
C         25.55529        50.28248         1.10102
C         28.01966        23.21234        -0.64226
C         26.78048        22.54077        -0.54535
C         28.03571        24.59607        -1.00012
C         26.79586        25.29403        -1.20045
C         28.03157        27.44302        -1.77017
C         26.76971        26.70818        -1.46144
C         28.09122        28.90415        -1.58961
C         26.80578        29.62891        -1.65311
C         28.04859        31.81588        -1.47156
C         26.76200        31.05239        -1.29223
C         28.02718        33.16886        -0.81215
C         26.78017        33.81423        -0.54759
C         27.98672        35.92771        -0.15926
C         26.77999        35.18684        -0.19694
C         27.95624        37.34833         0.03564
C         26.70531        38.05971         0.11407
C         27.91438        40.21066         0.15742
C         26.69248        39.49035         0.20815
C         27.90885        41.63366         0.21078
C         26.67499        42.33381         0.39933
C         27.89834        44.46947         0.50337
C         26.69308        43.74984         0.54166
C         27.91709        45.91165         0.65124
C         26.74556        46.65060         0.67804
C         27.97338        48.76434         0.92891
C         26.76158        48.08527         0.82639
C         28.05337        50.22861         1.32390
C         26.70854        50.90123         1.36904
C         30.51289        20.37016        -0.30221
C         29.31164        21.12236        -0.15839
C         30.50396        23.25095        -0.42428
C         29.25351        22.49234        -0.38830
C         30.50436        24.63322        -0.93750
C         29.28447        25.28411        -1.16728
C         30.63396        27.39608        -1.55815
C         29.35008        26.66745        -1.65740
C         30.60868        28.89155        -1.83431
C         29.30136        29.59729        -1.46383
C         30.53322        31.70827        -1.00294
C         29.31472        31.00615        -1.23845
C         30.50646        33.12594        -0.72158
C         29.24362        33.83915        -0.61804
C         30.43974        35.95064        -0.07040
C         29.23167        35.23857        -0.29157
C         30.39603        37.33586         0.21326
C         29.17429        38.06001         0.15271
C         30.36265        40.23584         0.08619
C         29.16476        39.50755         0.15443
C         30.37567        41.65445        -0.05020
C         29.13219        42.36302         0.10997
C         30.35446        44.49195         0.09461
C         29.12876        43.77093         0.26951
C         30.41392        45.90780         0.23040
C         29.24469        46.59518         0.88608
C         30.37617        48.80672         0.37813
C         29.20691        48.08641         0.67766
C         30.40695        50.21980         0.43368
C         29.08131        50.95672         0.43178
C         30.42278        53.01593         0.86657
C         29.22153        52.41019         0.77593
C         32.88885        18.82382        -1.18115
C         32.88423        20.32077        -1.30370
C         31.71010        20.97961        -0.59319
C         32.97881        23.07353        -1.12029
C         31.81271        22.42662        -0.48683
C         32.80649        24.34446        -1.62916
C         31.72475        25.24113        -1.35738
C         33.14985        27.43670        -1.78755
C         31.81717        26.67618        -1.55322
C         33.02731        28.86864        -1.24049
C         31.84729        29.57796        -1.29089
C         32.97886        31.71177        -0.67049
C         31.78731        31.00139        -0.98192
C         32.95145        33.12082        -0.41586
C         31.70666        33.82713        -0.44987
C         32.89948        35.91349         0.10967
C         31.70283        35.23829        -0.13393
C         32.91912        37.29049         0.72719
C         31.61793        38.05960         0.59641
C         32.89123        40.27546         0.15872
C         31.63021        39.56314         0.39757
C         32.86789        41.62412        -0.24112
C         31.59427        42.35122        -0.29358
C         32.53757        44.61542        -0.87782
C         31.50141        43.78744        -0.37441
C         32.72889        45.95322        -0.54969
C         31.58862        46.62448        -0.03630
C         32.89245        48.79218        -0.04624
C         31.55831        48.11526        -0.25012
C         32.90229        50.18333         0.25945
C         31.65063        50.90681         0.43545
C         32.91916        52.99719         0.81170
C         31.67652        52.30737         0.69515
C         32.97786        54.37743         1.16626
C         35.14372        18.80731        -0.18296
C         33.92914        18.13540        -0.69722
C         35.29937        20.25134        -0.43980
C         34.19417        20.97883        -0.89847
C         35.49164        23.07961        -0.78707
C         34.25964        22.38919        -1.04226
C         35.58135        24.53561        -0.86193
C         34.63660        25.35680        -1.53316
C         35.54856        27.37509        -0.72293
C         34.42642        26.71882        -1.26529
C         35.58331        28.84870        -0.76646
C         34.28903        29.59983        -0.99270
C         35.38603        31.67728        -0.14901
C         34.23347        31.01858        -0.56546
C         35.39435        33.10804        -0.01128
C         34.16046        33.81871        -0.13845
C         35.36532        35.94377         0.29339
C         34.15157        35.23014         0.07973
C         35.36505        37.38826         0.36306
C         34.14541        38.10007         0.36126
C         35.36640        40.21638         0.27901
C         34.13754        39.52275         0.27827
C         35.32093        41.71535         0.46050
C         34.14912        42.31422        -0.28976
C         35.39783        44.47732        -0.49224
C         34.33696        43.56209        -0.83703
C         35.32692        45.88247        -0.59764
C         34.03025        46.67311        -0.92817
C         35.31793        48.77681        -0.30285
C         34.07587        48.09670        -0.36318
C         35.36112        50.18157         0.01080
C         34.13537        50.88899         0.30136
C         35.37573        53.01781         0.65051
C         34.15090        52.29700         0.58960
C         35.40102        54.38762         0.96711
C         34.17441        55.05035         1.24201
C         37.67043        15.96164        -0.49332
C         36.48025        16.57877        -0.28996
C         37.69705        18.75319         0.10750
C         36.42753        18.00462         0.05069
C         37.71170        20.16087         0.18558
C         36.53113        20.91517        -0.15026
C         37.79196        23.01058         0.20487
C         36.60844        22.33770        -0.28943
C         37.70489        24.45729         0.44641
C         36.62672        25.22307        -0.20665
C         37.95699        27.31519        -0.02034
C         36.66307        26.63192        -0.25388
C         37.96896        28.84556        -0.01198
C         36.69021        29.51849        -0.10063
C         37.90778        31.62432         0.13609
C         36.58570        30.92329         0.37606
C         37.88869        33.11693         0.14672
C         36.59656        33.82174         0.20060
C         37.84937        35.94530         0.41992
C         36.60784        35.23942         0.31287
C         37.84524        37.38104         0.44750
C         36.60261        38.08954         0.38930
C         37.84392        40.21512         0.31734
C         36.60263        39.51669         0.34463
C         37.85022        41.63212        -0.17558
C         36.60332        42.41171         0.10216
C         37.84578        44.51606        -0.17337
C         36.61677        43.78268        -0.15034
C         37.80392        45.92284        -0.30368
C         36.54933        46.61450        -0.45104
C         37.78559        48.75690        -0.46817
C         36.56168        48.05476        -0.44575
C         37.80723        50.20335        -0.35902
C         36.58735        50.87556        -0.00845
C         37.86331        53.08688         0.10014
C         36.67308        52.24778         0.62011
C         37.63946        54.56162         0.00052
C         36.63114        55.17009         0.78321
C         37.93543        57.25355         0.74112
C         36.79052        56.53681         1.11041
C         40.28373        14.56410        -0.48243
C         40.17768        15.94109        -0.43982
C         38.91986        16.64942        -0.26904
C         40.16067        18.63138         0.63419
C         38.90761        18.00397         0.08402
C         40.11119        20.13745         0.74364
C         38.96237        20.85545         0.48797
C         40.14928        23.01653         0.98801
C         38.95225        22.31716         0.58996
C         40.21241        24.40922         1.02599
C         38.98058        25.19499         0.87778
C         40.26652        27.31501         0.93042
C         39.08906        26.63856         0.61178
C         40.31146        28.78711         0.92674
C         39.14758        29.52102         0.56288
C         40.31721        31.65267         0.85063
C         39.14018        30.92176         0.56847
C         40.30890        33.09609         0.80136
C         39.11606        33.81703         0.53787
C         40.32010        35.92657         0.77100
C         39.09403        35.22654         0.56541
C         40.35416        37.37086         0.35252
C         39.05577        38.10687         0.52715
C         40.32468        40.25530         0.51132
C         39.06215        39.52452         0.45127
C         40.31150        41.70914         0.36664
C         39.10247        42.40093         0.12900
C         40.29388        44.55221         0.08858
C         39.07994        43.81132         0.02637
C         40.28195        45.96889        -0.07266
C         39.04133        46.65076        -0.26351
C         40.28198        48.75696        -0.50060
C         39.04134        48.05679        -0.43265
C         40.25352        50.17641        -1.00384
C         39.00658        50.89838        -0.55068
C         40.30099        53.02310        -0.98269
C         39.06835        52.36518        -0.45002
C         40.35659        54.38450        -1.26187
C         38.54389        55.42102        -0.63494
C         40.13132        57.35888        -0.58657
C         38.85366        56.71473        -0.18938
C         40.16174        58.75945        -0.53088
C         42.69229        14.65721        -0.90199
C         41.53142        13.93358        -0.74317
C         42.69502        16.08229        -0.79240
C         41.39476        16.74489        -0.64800
C         42.68227        18.79842         0.18477
C         41.39515        18.19433        -0.15253
C         42.67807        20.08961         0.90921
C         41.37007        20.78384         1.19517
C         42.68075        22.97469         1.27763
C         41.35091        22.27133         1.54142
C         42.69221        24.38482         1.35076
C         41.44399        25.13167         1.26282
C         42.63054        27.26538         1.73185
C         41.42329        26.53997         1.30678
C         42.65180        28.77127         1.78306
C         41.45621        29.51555         1.32583
C         42.71866        31.69089         1.39771
C         41.50272        30.94304         1.22036
C         42.72947        33.08739         1.29616
C         41.50415        33.81290         1.08357
C         42.72358        35.98794         1.53321
C         41.49393        35.23633         1.07026
C         42.71960        37.44239         1.10720
C         41.56636        38.12219         0.82013
C         42.76339        40.29507         0.89103
C         41.51837        39.57233         0.75160
C         42.74861        41.77008         0.85467
C         41.51063        42.45324         0.44644
C         42.74764        44.60591         0.21848
C         41.52113        43.85992         0.25464
C         42.74806        45.98824         0.11653
C         41.50866        46.69404        -0.03393
C         42.77715        48.81062        -0.43205
C         41.50014        48.10239        -0.28155
C         42.75878        50.25119        -0.65723
C         41.54612        50.92321        -0.74252
C         42.74916        53.09856        -0.81756
C         41.53724        52.34672        -0.82385
C         42.71640        54.52731        -0.85100
C         41.47835        55.20835        -1.00768
C         42.59565        57.38533        -0.85447
C         41.36577        56.65193        -0.85373
C         42.55678        58.79769        -0.80335
C         41.35191        59.47529        -0.68851
C         45.14356        16.22588        -1.06081
C         43.88110        16.83494        -0.70351
C         45.14451        18.80574         0.23994
C         43.88377        18.17039        -0.13771
C         45.16663        20.11236         0.72964
C         43.94220        20.85963         0.92346
C         45.20378        22.95081         1.47747
C         43.90509        22.23432         1.17677
C         45.15949        24.43247         1.23687
C         43.94627        25.09955         1.33784
C         45.18894        27.32425         1.41110
C         43.96099        26.54239         1.65486
C         45.20465        28.75100         1.41795
C         43.98497        29.49762         1.83573
C         45.21238        31.63195         1.15732
C         44.01423        31.02438         1.83883
C         45.24988        33.08881         1.33633
C         43.98419        33.83806         1.33062
C         45.24974        35.92617         1.00187
C         44.01358        35.22307         1.27505
C         45.27747        37.40799         1.07509
C         43.98837        38.17897         1.22422
C         45.21921        40.31875         0.62218
C         43.95893        39.62870         0.96836
C         45.31513        41.77627         0.71183
C         44.04181        42.52369         0.80567
C         45.26624        44.63100         0.29748
C         44.02052        43.82029         0.03176
C         45.26815        46.01285        -0.30213
C         44.04467        46.76858         0.26395
C         45.26339        48.80571        -0.73936
C         43.97206        48.15499        -0.30732
C         45.24247        50.30248        -0.57840
C         44.00392        50.98437        -0.63889
C         45.22175        53.13948        -0.68897
C         43.99364        52.40805        -0.70726
C         45.18904        54.57995        -0.72315
C         43.93897        55.27212        -0.78749
C         45.11374        57.39122        -0.85094
C         43.88200        56.69073        -0.85422
C         46.32730        16.77765        -0.72020
C         47.75005        18.66959         0.28997
C         46.39202        18.00831         0.08842
C         47.77325        20.13215         0.62918
C         46.45435        20.82466         0.95361
C         47.61836        23.00986         0.76702
C         46.44158        22.29585         0.92135
C         47.61517        24.46188         0.90939
C         46.39000        25.15221         1.13417
C         47.57105        27.28645         0.84627
C         46.37053        26.58752         1.12570
C         47.48052        28.69049         0.44311
C         46.29359        29.45805         0.84704
C         47.49424        31.63492         0.20351
C         46.30783        30.90234         0.74729
C         47.61931        33.07593         0.33478
C         46.55310        33.84290         0.94833
C         47.54987        35.96848        -0.04966
C         46.42477        35.27256         0.68992
C         47.65714        37.42087         0.33069
C         46.51992        38.09911         0.66652
C         47.76530        40.29490         0.40842
C         46.49381        39.55689         0.46037
C         47.76500        41.70558         0.38296
C         46.51799        42.42018         0.52426
C         47.81694        44.60242         0.25204
C         46.54681        43.89773         0.50729
C         47.78696        46.02861         0.11787
C         46.56766        46.75284        -0.05878
C         47.72469        48.92072        -0.19519
C         46.52628        48.14614        -0.22076
C         47.70776        50.28968        -0.47096
C         46.46120        51.01114        -0.58194
C         47.69912        53.18773        -0.63818
C         46.45656        52.44510        -0.64199
C         47.67056        54.61303        -0.63406
C         46.40328        55.31607        -0.69581
C         46.32634        56.72946        -0.76537
C         49.99099        18.87641        -0.73982
C         48.96848        18.10557        -0.33172
C         49.95690        20.34990        -0.63620
C         48.86233        20.97568         0.10788
C         50.06315        23.12512         0.19215
C         48.84314        22.35544         0.32088
C         50.07198        24.50661         0.56290
C         48.82474        25.18464         0.80081
C         50.03106        27.36455         0.71606
C         48.80199        26.61731         0.77487
C         50.04901        28.72574         0.47193
C         48.80112        29.39989         0.09357
C         50.08387        31.62483         0.05585
C         48.80434        30.87956        -0.06446
C         50.08455        33.01195        -0.07387
C         48.78579        33.75498        -0.35102
C         50.06029        35.91191        -0.09159
C         48.85574        35.22589        -0.01846
C         50.08045        37.37680        -0.07648
C         48.91340        38.11904         0.13770
C         50.18227        40.27171         0.04901
C         48.95638        39.55686         0.25032
C         50.20635        41.71171         0.04621
C         48.99817        42.42956         0.24149
C         50.32306        44.57783         0.42910
C         49.00419        43.87079         0.22613
C         50.25905        46.05983         0.13199
C         49.05659        46.73012         0.09216
C         50.28350        48.97594        -0.02619
C         48.99582        48.21743         0.13300
C         50.24512        50.37464        -0.44482
C         48.96217        51.01346        -0.88384
C         50.16455        53.21652        -0.66548
C         48.94343        52.50541        -0.66402
C         50.11107        54.63396        -0.59859
C         48.90519        55.30698        -0.59695
C         52.57590        20.49546        -0.89092
C         51.28774        21.17135        -0.74215
C         52.52978        23.17902         0.07963
C         51.28704        22.50811        -0.13771
C         52.52602        24.55724         0.47826
C         51.29179        25.21075         0.65498
C         52.53732        27.39746         0.92504
C         51.26543        26.63212         1.15756
C         52.50203        28.77799         0.80476
C         51.27606        29.50226         0.53907
C         52.61792        31.58584         0.03084
C         51.29550        30.88200         0.30106
C         52.56593        33.09245         0.14305
C         51.31774        33.77132        -0.03899
C         52.59549        35.87304        -0.47622
C         51.29959        35.17755        -0.15077
C         52.52742        37.36542        -0.35883
C         51.33034        38.07748        -0.25342
C         52.50941        40.24705        -0.71901
C         51.33569        39.51978        -0.24661
C         52.57009        41.69943        -0.63969
C         51.43837        42.43054        -0.26795
C         52.64140        44.58872        -0.59284
C         51.49219        43.86685        -0.21634
C         52.73047        45.99679        -0.42473
C         51.59225        46.77522         0.22774
C         52.67035        48.91198        -0.53822
C         51.52675        48.22422        -0.20585
C         52.69350        50.35358        -0.61381
C         51.45037        51.07366        -0.60645
C         52.68129        53.17405        -0.75738
C         51.44186        52.50955        -0.71330
C         53.73330        21.12014        -0.53683
C         54.99912        23.16333         0.18909
C         53.76128        22.48466        -0.08112
C         55.00147        24.56154         0.51630
C         53.77316        25.26552         0.66405
C         55.02626        27.34738         1.11003
C         53.78237        26.66697         0.94487
C         55.02512        28.80188         1.39964
C         53.71667        29.55368         1.10681
C         54.98825        31.64344         0.89078
C         53.80257        30.96204         0.73682
C         54.96354        33.12323         0.83592
C         53.75411        33.82862         0.35979
C         55.04167        35.94570         0.27633
C         53.80852        35.23255         0.18052
C         55.03989        37.43483         0.20950
C         53.78813        38.11869        -0.22220
C         55.08545        40.25046        -0.78823
C         53.83403        39.49366        -0.79636
C         55.10330        41.61730        -1.04440
C         53.80309        42.36048        -1.12127
C         55.13686        44.59077        -1.47114
C         53.79613        43.86906        -1.21260
C         55.15068        46.03607        -1.03120
C         53.93201        46.68789        -0.75777
C         55.20698        48.92942        -0.87991
C         53.88565        48.15674        -0.88168
C         55.16976        50.34209        -0.49271
C         53.92377        51.06577        -0.61456
C         53.88686        52.48146        -0.67938
C         57.43741        23.15418         0.35398
C         56.24011        22.48857         0.13498
C         57.48036        24.53782         0.60836
C         56.24520        25.25267         0.69071
C         57.51154        27.33203         1.30537
C         56.23540        26.65047         0.97966
C         57.52685        28.82830         1.52036
C         56.27124        29.58353         1.30937
C         57.51562        31.69400         0.93794
C         56.25039        30.96246         1.15946
C         57.50719        33.05402         0.61012
C         56.29881        33.86587         0.75197
C         57.53203        35.95844         0.11066
C         56.27675        35.28325         0.36002
C         57.57133        37.36434        -0.09230
C         56.35643        38.22753         0.17939
C         57.59550        40.19932        -0.76283
C         56.32529        39.39419        -0.83823
C         57.58045        41.61256        -0.92953
C         56.35207        42.32593        -1.06660
C         57.69307        44.55752        -1.13002
C         56.36690        43.81048        -0.99598
C         57.65689        46.06079        -1.22817
C         56.41413        46.73483        -1.02992
C         57.60534        48.81823        -0.34831
C         56.43299        48.14389        -0.74631
C         57.53040        50.17792         0.06739
C         56.34786        50.91175         0.00629
C         59.98177        24.55450         0.57773
C         58.75676        25.23782         0.74768
C         60.01316        27.33955         1.03299
C         58.78205        26.62575         1.02153
C         60.03526        28.78755         1.08886
C         58.84240        29.59906         1.55797
C         59.97945        31.63311         0.63463
C         58.75487        30.97475         0.93101
C         59.99255        33.02248         0.26656
C         58.68783        33.69321        -0.07170
C         59.96997        35.86751        -0.18594
C         58.73210        35.20546         0.01386
C         60.00491        37.30262        -0.35865
C         58.77562        38.03490        -0.36970
C         60.04003        40.12852        -0.81440
C         58.79338        39.46811        -0.62003
C         60.04212        41.52911        -1.18477
C         58.84212        42.30150        -1.11780
C         60.03349        44.16075        -2.07831
C         58.87674        43.69860        -1.43077
C         60.09646        46.45350        -1.74612
C         58.86119        46.85633        -1.16797
C         60.09719        48.80646        -0.30069
C         58.86865        48.14977        -0.55141
C         61.19394        25.23304         0.67751
C         61.21656        26.60828         0.88000
C         61.19793        29.50002         0.79687
C         61.19050        30.88877         0.65817
C         61.17668        33.74107         0.08059
C         61.17180        35.10718        -0.19407
C         61.21676        38.01225        -0.49770
C         61.23315        39.38281        -0.71374
C         61.22100        42.10291        -1.71020
C         61.19404        43.38465        -2.22487
C         61.29201        47.13452        -1.55732
C         61.29935        48.29088        -0.76019
O         31.36414        23.04436         0.75116
O         28.70059        26.91801        -2.97529
O         53.47286        43.06160        -2.39419
O         53.03744        39.66992        -1.99342
O         54.47563        48.63492        -2.12673
O         44.80578        37.84333         2.42252
O         54.16824        38.05704         1.22945
O         47.36452        20.35304         2.01104
O         57.45077        27.91689         2.67635
O         43.27246        29.12995         3.06209
O         57.06820        44.25757         0.19563
O         47.98732        28.79057        -0.94655
O         42.04883        20.01669         2.27389
O         33.42423        44.03099        -1.79348
O         35.51545        18.36256         1.15454
O         24.84723        35.26950         1.31747
O         35.23595        29.39852        -2.13003
O         49.65025        48.74007         1.35260
O         39.01068        52.83717         1.00808
O         55.57459        33.68003         2.03067
O         38.34609        28.07394        -1.21933
O         47.93885        31.24312        -1.18472
O         24.69437        46.34697        -0.64377
O         41.18314        17.89826        -1.55514
O         22.36422        45.31579        -0.24592
O         46.22782        33.48863         2.34285
O         43.25722        26.72460         2.93532
O         60.09037        45.41798        -2.68326
O         31.48260        38.94552         1.76120
O         54.15843        29.24921         2.48145
O         45.79003        44.52498         1.63336
O         37.92750        24.84632         1.84499
O         38.04047        32.32164        -1.12336
O         43.33760        42.43682         2.06454
O         45.64699        39.84835        -0.73775
O         26.10094        29.30169        -2.92870
O         39.19811        54.96180        -1.77920
O         33.81048        24.78752        -2.50080
O         50.35359        21.02897        -1.86439
O         47.17549        17.83831         1.33124
O         37.85212        41.47079        -1.66363
H         38.00336        42.36061        -2.05010
O         40.15550        50.08209        -2.47571
H         40.93113        49.56915        -2.78837
O         44.03909        43.40880        -1.36386
H         44.26994        44.20548        -1.90179
O         51.14957        26.53258         2.62691
H         52.02488        26.25880         2.97545
O         32.66896        20.64001        -2.71582
H         33.45822        20.34433        -3.21591
O         51.91712        46.87278         1.65802
H         51.20387        47.42037         2.06263
O         44.19796        31.44085         3.22477
H         43.71402        30.78787         3.78334
O         35.10987        41.94198         1.90052
H         34.26484        41.50519         2.14185
O         33.09261        37.00887         2.15760
H         32.70659        37.78077         2.63549
O         44.29757        46.92081         1.68818
H         43.49224        47.28893         2.10717
O         28.56397        50.87121        -0.92408
H         29.27303        51.14228        -1.54333
O         33.98609        46.83738        -2.38084
H         33.93246        45.93197        -2.76340
O         52.81708        35.62341        -1.93372
H         52.03594        35.97710        -2.41215
O         56.28758        38.74048        -2.15034
H         56.16008        39.43268        -2.83304
O         25.49299        44.56918         2.42982
H         25.64801        43.66437         2.77743
O         36.92119        51.95524         2.03280
H         37.90191        52.00789         2.15515
O         33.29979        27.56687        -3.21602
H         34.03009        28.21186        -3.36464
O         42.61783        36.05943         2.99450
H         43.41001        36.55995         3.30369
O         47.12994        35.99028        -1.46148
H         47.52881        35.19298        -1.89846
O         41.18512        22.35852         2.98568
H         41.77679        21.67767         3.38037
O         28.08743        32.11805        -2.92279
H         28.03448        31.26107        -3.40010
O         45.34031        22.81807         2.94025
H         46.20884        23.19494         3.19692
O         31.31655        48.24561        -1.70333
H         32.11540        47.89017        -2.16175
O         52.87735        31.32324        -1.40331
H         52.19519        31.80587        -1.91839
O         40.53896        37.30340        -1.11710
H         39.73154        36.89727        -1.49967
O         48.57539        33.71132        -1.82497
H         48.33083        32.76864        -2.02709
O         56.58311        38.77342         1.49429
H         55.71765        38.77799         1.96690
O         25.31199        48.97104        -0.84516
H         25.14605        48.05745        -1.18637
O         58.47555        33.40542        -1.52489
H         59.22949        33.81000        -2.00625
O         50.56800        44.46058         1.88040
H         49.86526        44.96687         2.34103
O         55.32205        44.66992        -2.91667
H         54.66585        44.05478        -3.32610
O         59.11684        29.86852         2.97567
H         58.74426        29.10430         3.47604
O         28.60213        50.26448         2.66975
H         27.93522        49.89382         3.28381
O         30.66471        29.02167        -3.28776
H         30.02784        28.36336        -3.65432
O         36.44646        30.92201         1.84930
H         35.58290        30.51658         2.07567
O         40.29996        18.05499         1.96536
H         40.95720        18.61178         2.45580
O         45.30898        48.57457        -2.22131
H         46.10495        49.04251        -2.55874
O         29.49645        46.43169         2.33935
H         28.73445        46.82720         2.81389
O         48.96109        50.84892        -2.37517
H         49.71345        51.37763        -2.72050
O         45.09866        45.87036        -1.73590
H         45.14407        46.77967        -2.13854
H         23.05240        23.47663        -1.21340
H         20.92667        24.70902        -1.39721
H         20.89549        27.17483        -1.44400
H         20.87729        29.04317        -1.11131
H         20.88565        31.47449        -0.95312
H         20.92880        33.39091        -1.18177
H         20.90070        35.78384        -0.73551
H         20.83221        37.49262         0.30620
H         20.81787        39.88762         0.73848
H         20.91775        41.66218         1.55194
H         20.82734        44.10013         1.65582
H         20.94251        46.12246         2.06336
H         23.41569        49.64160         2.34052
H         21.40155        48.35568         2.97211
H         24.65269        22.64508        -0.65213
H         24.61695        50.85649         1.14529
H         26.74980        21.47734        -0.27681
H         26.68962        51.94999         1.70498
H         30.42852        19.27409        -0.32995
H         28.38366        20.54607        -0.04289
H         30.44623        54.09362         1.07599
H         28.30468        53.00743         0.88392
H         32.00031        18.28945        -1.54926
H         32.05663        54.93211         1.38382
H         33.86698        17.04105        -0.61270
H         34.17986        56.11820         1.50011
H         37.68829        14.90132        -0.78077
H         35.54421        16.01111        -0.37557
H         38.08941        58.26180         1.15137
H         36.04649        57.02983         1.75156
H         39.40244        13.93015        -0.31478
H         39.22680        59.31004        -0.35688
H         43.63876        14.11986        -1.04902
H         41.56783        12.83630        -0.78765
H         43.48509        59.38140        -0.84378
H         41.33782        60.57351        -0.66370
H         45.13465        15.29073        -1.63726
H         45.13049        58.48718        -0.91225
H         47.26361        16.27256        -0.99103
H         47.24543        57.33051        -0.75992
H         50.86935        18.41083        -1.20791
H         49.04730        17.01228        -0.40949
H         51.04051        55.21781        -0.56536
H         48.91887        56.40457        -0.56787
H         52.60749        19.48498        -1.32015
H         52.71653        54.26939        -0.83325
H         54.67850        20.57649        -0.66707
H         54.82929        53.04557        -0.70217
H         58.36507        22.56952         0.30998
H         56.27658        21.41224        -0.07627
H         58.43525        50.68484         0.42683
H         56.35216        51.96005         0.33608
H         59.99843        23.47687         0.37343
H         60.10349        49.76309         0.23712
H         62.13809        24.68157         0.57009
H         62.18692        27.11735         0.93381
H         62.14391        28.97498         0.60601
H         62.14268        31.38442         0.43023
H         62.15155        33.24587         0.18536
H         62.13738        35.60598        -0.34353
H         62.17887        37.48755        -0.43541
H         62.20746        39.88007        -0.80864
H         62.14188        41.51282        -1.79308
H         62.06996        43.81767        -2.72384
H         62.20781        46.77652        -2.04415
H         62.24018        48.82352        -0.56752
