         321
 CSIRO Nanostructure Databank - Neutral Graphene Oxide Data Set
C         30.44822        57.16698        -0.46972
C         30.43023        58.57979        -0.54171
C         29.27807        59.28800        -0.99221
C         30.43227        61.42521        -0.84261
C         29.33396        60.68230        -1.20611
C         32.83872        52.94112         0.32090
C         32.83273        54.35622         0.29289
C         31.64408        55.05666        -0.02511
C         32.83818        57.19686         0.12483
C         31.62272        56.46491        -0.11135
C         32.82256        58.62058         0.04134
C         31.61504        59.30847        -0.22479
C         32.88499        61.44954        -0.33912
C         31.55861        60.80537        -0.06876
C         35.23575        48.64082         0.67120
C         35.22168        50.05194         0.80044
C         34.03043        50.80174         0.60598
C         35.21969        52.95576         0.88588
C         34.01942        52.22107         0.59437
C         35.24626        54.36570         0.86178
C         34.04376        55.08348         0.55306
C         35.23600        57.26609         0.66514
C         34.04480        56.51462         0.45059
C         35.23859        58.66025         0.50101
C         34.04895        59.34512         0.17990
C         35.34464        61.38889        -0.35793
C         34.06156        60.76564        -0.14805
C         37.75295        44.41284         0.00178
C         37.65546        45.76812         0.47767
C         36.46090        46.48754         0.55894
C         37.63140        48.62681         1.10447
C         36.42844        47.90768         0.81836
C         37.65764        50.03534         1.16302
C         36.45004        50.74323         1.05383
C         37.73771        52.97232         1.34314
C         36.41702        52.20321         1.26558
C         37.70987        54.41810         1.07528
C         36.49565        55.08428         0.99536
C         37.75455        57.26613         0.67772
C         36.48488        56.58524         1.16878
C         37.75134        58.61788         0.50621
C         36.50919        59.44910         0.73472
C         37.77723        61.38331        -0.32698
C         36.53040        60.75650        -0.04290
C         40.34904        40.29351        -0.88431
C         40.29150        41.63933        -0.51682
C         39.07368        42.36118        -0.48718
C         40.20719        44.40198         0.36642
C         38.96951        43.72228        -0.10551
C         40.10178        45.87285         0.53686
C         38.88610        46.47329         0.77272
C         40.18891        48.58362         1.54635
C         38.87785        47.86185         1.27115
C         40.19097        50.10209         1.72222
C         38.99742        50.74128         0.98690
C         40.20118        52.92895         1.15580
C         39.00668        52.24352         1.20337
C         40.20653        54.38228         0.95422
C         38.97623        55.09887         0.89275
C         40.21146        57.09880         0.21960
C         38.99869        56.48936         0.61888
C         40.14947        58.52380        -0.17189
C         39.05997        59.36367         0.45627
C         40.22961        61.39804        -0.42029
C         39.00345        60.74699        -0.15730
C         42.93117        36.24415        -2.00703
C         42.87303        37.51162        -1.40751
C         41.64796        38.26358        -1.37610
C         42.75481        40.15394        -0.23703
C         41.57800        39.55942        -0.87723
C         42.74437        41.45242         0.19107
C         41.61844        42.34331        -0.32616
C         42.82445        44.31273         0.68017
C         41.50736        43.65184         0.41803
C         43.05345        45.61279         0.38605
C         41.23558        46.73406         0.39778
C         42.71212        48.62099         1.02631
C         41.41396        47.94809         1.01298
C         42.69192        50.05332         1.10339
C         41.47070        50.77176         1.23261
C         42.69071        52.86651         0.93380
C         41.46073        52.16997         1.11448
C         42.65580        54.34361         1.13589
C         41.42662        55.06224         0.70392
C         42.65155        57.07098        -0.34965
C         41.44127        56.39365         0.18319
C         42.65669        58.43437        -0.58260
C         41.41180        59.21979        -0.56220
C         42.69221        61.34767        -0.54305
C         41.45578        60.70162        -0.47987
C         45.42960        33.55599        -2.76342
C         44.21490        34.23229        -2.66461
C         45.34648        36.11641        -1.56331
C         44.14963        35.52212        -2.07076
C         45.29457        37.38977        -0.91918
C         44.05033        38.05173        -0.80367
C         45.25271        39.97082         0.41101
C         43.94409        39.29409        -0.02882
C         45.24306        41.40440         0.73475
C         43.92275        42.03044         0.90949
C         45.24863        44.22817         1.35052
C         43.94278        43.53955         1.25461
C         45.20923        45.69250         1.60154
C         43.99700        46.45020         1.12688
C         45.18141        48.64978         1.20340
C         43.94719        47.93759         1.02635
C         45.17026        50.04954         1.09036
C         43.92953        50.74983         0.95440
C         45.15729        52.78146         0.28671
C         43.89405        52.16580         0.77413
C         45.22535        54.17321        -0.38149
C         44.01860        54.95382        -0.73442
C         45.15897        57.05414        -0.59067
C         43.92353        56.35174        -0.53115
C         45.17369        58.47468        -0.77158
C         43.88038        59.16945        -1.04679
C         45.13019        61.30426        -0.70161
C         43.91301        60.63946        -0.71479
C         46.61116        34.14035        -2.30714
C         47.79120        36.07213        -1.31611
C         46.59704        35.43071        -1.71432
C         47.77833        37.38100        -0.78000
C         46.52110        38.03659        -0.51505
C         47.72294        40.07276         0.21115
C         46.52158        39.34028         0.02694
C         47.71004        41.43512         0.66541
C         46.44006        42.10273         0.90078
C         47.71182        44.20745         1.38303
C         46.44846        43.52373         1.23123
C         47.72968        45.66922         1.68139
C         46.46837        46.47985         1.73981
C         47.65466        48.64418         1.34735
C         46.44996        47.94749         1.41686
C         47.71697        50.08868         1.29338
C         46.40399        50.85050         1.45497
C         47.60539        52.87949         0.64290
C         46.41722        52.19690         0.76555
C         47.59449        54.30135         0.34282
C         46.45223        54.93874        -0.11418
C         47.60079        57.08622        -0.43936
C         46.41684        56.36262        -0.38605
C         47.62488        58.38683        -1.18326
C         46.36411        59.17985        -0.91681
C         47.58842        61.33680        -0.88620
C         46.39312        60.62898        -0.88046
C         48.97868        38.07777        -0.53327
C         50.17100        40.14584         0.03033
C         48.97317        39.42039        -0.09108
C         50.17951        41.49368         0.46730
C         48.92723        42.14666         0.82074
C         50.22684        44.21386         1.49045
C         48.92312        43.53076         1.21769
C         50.28364        45.73643         1.73894
C         48.97945        46.39848         1.31419
C         50.23057        48.58604         1.39620
C         48.92551        47.88037         1.21186
C         50.24342        50.08200         1.44593
C         48.91426        50.80848         1.31584
C         49.90217        53.10677         1.36803
C         48.83753        52.25372         1.12452
C         50.06529        54.44364         0.86005
C         48.77248        55.12908         0.66832
C         50.12241        57.17660        -0.05943
C         48.80865        56.55362         0.16954
C         50.14627        58.50378        -0.52665
C         48.92954        59.16937        -1.03913
C         50.14963        61.36524        -0.59754
C         48.90522        60.68750        -0.99345
C         51.38741        42.19505         0.46105
C         52.69111        44.32547         0.74681
C         51.49741        43.52314         1.04314
C         52.67214        45.70479         0.71037
C         51.46420        46.45155         1.08162
C         52.50440        48.51882         0.15926
C         51.43304        47.80880         0.94998
C         52.61225        49.98689         0.44285
C         51.56358        50.68930         1.05781
C         52.71557        52.82162         0.62159
C         51.77629        52.05211         1.30691
C         52.52132        54.26299         0.16509
C         51.28404        55.05695         0.59118
C         52.56408        57.14234         0.01979
C         51.31799        56.46453         0.21038
C         52.57116        58.51221        -0.31249
C         51.36545        59.21926        -0.52989
C         52.61195        61.36809        -0.40141
C         51.35605        60.68223        -0.56912
C         53.85153        46.43592         0.36038
C         55.01437        48.54336        -0.08673
C         53.84024        47.82135         0.17340
C         55.03494        49.96872        -0.21308
C         53.79455        50.68800         0.07627
C         54.96648        52.87456        -0.36698
C         53.78884        52.09996         0.06453
C         55.00299        54.29010         0.06985
C         53.82942        55.01363         0.26361
C         55.04846        57.15045         0.13511
C         53.82852        56.44098         0.20745
C         55.09482        58.52531        -0.20905
C         53.84949        59.21155        -0.69732
C         55.07585        61.36658        -0.34668
C         53.83108        60.69794        -0.41547
C         56.22240        50.66144        -0.42302
C         57.53115        52.87716        -0.39051
C         56.27184        52.12343        -0.56971
C         57.55128        54.20917        -0.05778
C         56.29714        54.90739         0.30297
C         57.57897        57.13934         0.09134
C         56.31496        56.46272         0.40109
C         57.55229        58.50351        -0.17359
C         56.31173        59.21594        -0.25953
C         57.53422        61.36846        -0.35281
C         56.30784        60.67402        -0.36947
C         58.77272        54.98522         0.00518
C         60.14186        57.07494        -0.00061
C         58.79939        56.35950         0.06680
C         60.01028        58.57921         0.28190
C         58.84637        59.20180        -0.51296
C         59.99032        61.39336        -0.25255
C         58.78415        60.70786        -0.33034
C         61.28723        59.34466         0.02116
C         61.23976        60.68765        -0.18614
O         36.99481        52.60442         2.56219
O         48.95965        47.01283        -0.01166
O         43.73055        59.10879        -2.60893
O         45.24293        52.95208        -1.20231
O         42.21073        46.28353        -0.50311
O         40.67532        43.68365         1.60426
O         56.35845        55.61548         1.58123
O         51.04183        43.52760         2.48979
O         50.91404        52.67023         2.21188
O         43.56625        54.91156         1.74345
O         49.15544        59.93113        -2.26990
O         39.49726        47.92393         2.64379
O         44.42804        39.17947         1.34276
O         48.54575        56.22699         1.60184
O         44.13549        46.03778         2.53667
O         52.06841        48.39424        -1.30489
O         55.45200        52.63219        -1.72359
O         47.19578        46.11456         2.96739
O         43.64091        42.53783         2.25291
O         50.34249        49.27319         2.67916
O         43.07986        54.28533        -1.39742
H         43.45689        53.38679        -1.59614
O         39.43928        59.54255         1.85577
H         38.62469        59.82181         2.33632
O         50.71721        48.89723        -1.39572
H         50.15891        48.08415        -1.26799
O         40.10280        50.39900         3.12282
H         39.73992        49.59614         3.56685
O         44.88721        59.70806        -3.18863
H         44.68040        60.67529        -3.18265
O         60.74571        56.85769        -1.27994
H         60.27015        57.42892        -1.92695
O         31.24801        61.05131         1.37309
H         30.38253        60.62476         1.55238
O         59.71292        58.70104         1.69394
H         59.67061        59.65589         1.91180
O         36.46685        56.78533         2.62332
H         37.24130        56.31550         2.99951
O         50.37263        45.93823         3.16135
H         50.88267        45.17904         3.52799
O         46.27149        51.13724         2.88731
H         46.33721        50.28783         3.37368
O         36.56337        59.83166         2.15110
H         35.69219        60.21508         2.38877
O         47.53040        58.00016        -2.59237
H         47.85406        58.77727        -3.10766
O         39.30395        50.54925        -0.43526
H         38.55172        50.89180        -0.96258
O         53.91812        59.09472        -2.16812
H         53.10767        59.51374        -2.53018
O         52.24156        54.11879        -1.27502
H         53.03952        53.73801        -1.70414
O         42.06014        42.74218        -1.67119
H         41.99964        41.95197        -2.24950
O         40.41474        58.76059        -1.57848
O         59.10999        58.96198        -1.93007
H         58.38012        59.36977        -2.44250
H         29.53420        56.60216        -0.70606
H         28.37290        58.72682        -1.26255
H         30.44569        62.51246        -1.00743
H         28.47522        61.17841        -1.68250
H         31.90644        52.39543         0.11609
H         30.72421        54.48793        -0.22556
H         32.90922        62.51243        -0.62291
H         34.30242        48.11637         0.41932
H         33.09134        50.26476         0.40872
H         35.37035        62.39137        -0.81255
H         36.82361        43.89728        -0.28588
H         35.51202        45.99045         0.30732
H         37.75859        62.39164        -0.77068
H         39.42642        39.76674        -1.17182
H         38.14886        41.81520        -0.73250
H         40.22809        62.48449        -0.59920
H         42.01857        35.80263        -2.43371
H         40.74705        37.80815        -1.81330
H         42.73229        62.44221        -0.43471
H         45.45956        32.55704        -3.22092
H         43.29358        33.77191        -3.04914
H         45.14374        62.39005        -0.52061
H         47.56742        33.60824        -2.41195
H         48.75554        35.56732        -1.47654
H         47.56146        62.42760        -0.74514
H         49.94079        37.58635        -0.74002
H         51.12502        39.66269        -0.22573
H         50.13311        62.45477        -0.44491
H         52.28697        41.72330         0.03940
H         53.60344        43.79110         0.44243
H         52.59819        62.46394        -0.29713
H         54.79876        45.88467         0.26340
H         55.96543        47.99471        -0.16403
H         55.08778        62.46561        -0.28069
H         57.16907        50.10158        -0.46868
H         58.48130        52.34754        -0.56159
H         57.51912        62.46920        -0.32147
H         59.72587        54.44324        -0.09115
H         60.82504        56.62638         0.76635
H         59.99438        62.49332        -0.23670
H         62.25105        58.82330         0.11301
H         62.17074        61.26656        -0.27811
