         762
 CSIRO Nanostructure Databank - Neutral Graphene Oxide Data Set
C         23.57664        24.38205        -1.73496
C         22.57669        24.97781        -2.50086
C         23.19212        27.16257        -1.65169
C         22.39128        26.36272        -2.47755
C         23.09360        28.65547        -1.78810
C         21.86250        29.34617        -1.39140
C         22.95922        31.54837        -1.34684
C         21.78700        30.70647        -1.31611
C         22.90673        32.98788        -1.14807
C         21.66761        33.69077        -1.11271
C         22.80423        35.83428        -0.79849
C         21.62010        35.05750        -0.94794
C         22.76671        37.25572        -0.56357
C         21.55561        38.00969        -0.58631
C         22.70863        40.06658         0.05061
C         21.52668        39.36217        -0.31878
C         22.72959        41.48615         0.33904
C         21.57359        42.30179         0.26312
C         22.88336        44.30644         0.79340
C         21.64397        43.64760         0.56390
C         22.89608        45.74914         1.07811
C         21.74331        46.39203         1.56954
C         22.96359        48.46797         1.82865
C         21.78298        47.73700         1.93482
C         25.45674        23.11645         0.09508
C         25.46683        24.56445        -0.07022
C         24.39235        25.15763        -0.88677
C         25.00942        27.36774         0.08108
C         24.16866        26.55096        -0.83272
C         25.69932        28.87486        -1.76495
C         24.36609        29.52340        -1.86277
C         25.39836        31.64953        -1.12830
C         24.21139        30.92273        -1.42349
C         25.37637        33.07293        -1.02418
C         24.10327        33.74388        -1.03886
C         25.27317        35.91941        -0.71201
C         24.06337        35.17213        -0.86657
C         25.24619        37.26426        -0.34395
C         23.97370        37.93858        -0.25525
C         25.08837        39.91291         0.66435
C         23.91468        39.31801         0.10398
C         25.04381        41.25970         1.03472
C         23.95990        42.11827         0.71488
C         25.35626        44.28909         0.50660
C         24.07608        43.55356         0.79406
C         25.29826        45.83475         0.44308
C         24.09164        46.49679         0.96262
C         25.37360        48.62883         1.15422
C         24.14316        47.86327         1.34639
C         25.47487        49.99611         1.60348
C         27.55168        23.15947         1.40818
C         26.40662        22.46376         0.78946
C         27.48206        24.70740         1.48388
C         26.43518        25.32730         0.54597
C         27.72034        27.57634         0.31798
C         26.38045        26.82047         0.44620
C         27.93483        28.82488        -0.52481
C         26.77417        29.50028        -1.14330
C         27.74770        31.76084        -1.42893
C         26.64225        30.96400        -1.14029
C         27.81088        33.13577        -1.13796
C         26.59205        33.80088        -0.92889
C         27.84207        35.97777        -0.56718
C         26.58709        35.29886        -1.09082
C         27.81063        37.34208        -0.16874
C         26.47935        37.94518         0.04954
C         28.21642        40.30700         0.69295
C         26.29313        39.13039         0.74093
C         28.16522        41.72120         0.59591
C         27.00246        42.43962         0.99755
C         27.85042        44.51213         0.09538
C         26.73114        43.73046         0.54147
C         27.75683        45.93217         0.07269
C         26.56391        46.59114         0.40589
C         27.65507        48.83472         0.19427
C         26.51604        48.00504         0.62954
C         27.69389        50.31138         0.57423
C         26.59190        50.75951         1.43410
C         30.20707        20.31407         1.17346
C         29.00237        20.96511         1.11863
C         30.13680        23.13763         1.70846
C         28.85041        22.37424         1.53430
C         30.10904        24.54811         1.17698
C         28.86765        25.40618         1.31767
C         30.31254        27.38035         0.44561
C         28.97109        26.79634         0.73613
C         30.35164        28.80664         0.19988
C         29.19579        29.41459        -0.44481
C         30.45317        31.57760        -0.50391
C         29.54478        30.70081        -1.02515
C         30.43490        33.01575        -0.86588
C         29.11659        33.83536        -1.11311
C         30.28245        35.98342        -0.61135
C         29.07229        35.28648        -0.73898
C         30.26735        37.40371        -0.46430
C         29.04853        38.08917        -0.16203
C         30.32728        40.27168        -0.42609
C         29.16526        39.53884         0.00542
C         30.34921        41.69756        -0.48408
C         29.20081        42.41803        -0.08308
C         30.23396        44.56660        -0.63282
C         29.12280        43.85907        -0.18222
C         30.18699        46.03004        -0.66446
C         29.06162        46.69437         0.10979
C         30.25909        48.94081        -0.10392
C         28.94114        48.17570        -0.19358
C         30.22840        50.28799         0.46277
C         29.02623        50.98291         0.65766
C         30.29408        53.05234         0.98006
C         29.06547        52.36588         0.94216
C         32.72639        18.76818         1.46830
C         32.68800        20.22036         1.49401
C         31.45092        20.93283         1.51128
C         32.77378        23.16467         1.72716
C         31.44474        22.39337         1.79246
C         32.68699        24.45212         0.90049
C         31.39840        25.20618         0.79591
C         32.74777        27.38227         0.81626
C         31.47525        26.68511         0.68115
C         32.68909        28.86353         0.96697
C         31.48862        29.54616         0.45389
C         32.81100        31.75084         0.37041
C         31.44928        31.06495         0.51201
C         32.75483        33.18878         0.07205
C         31.62257        33.78484        -0.44120
C         32.83013        35.99507        -0.73490
C         31.55706        35.23240        -0.78255
C         32.76405        37.43843        -0.42339
C         31.49668        38.15168        -0.55930
C         32.77419        40.27971        -0.86563
C         31.53680        39.55041        -0.63132
C         32.71407        41.71420        -1.11766
C         31.53549        42.40684        -0.92322
C         32.73382        44.66567        -1.01864
C         31.43229        43.89216        -1.27277
C         32.75458        46.02063        -0.77278
C         31.50185        46.80983        -0.69928
C         32.75178        48.78987         0.15422
C         31.53959        48.18650        -0.15101
C         32.79333        50.18890         0.60652
C         31.49564        50.86227         1.04496
C         32.76592        53.07635         1.23967
C         31.49823        52.37327         0.97026
C         32.87049        54.52517         1.04624
C         35.17738        18.66801         1.29574
C         33.88532        18.04563         1.35940
C         35.22647        20.15530         1.60344
C         33.92304        20.91034         1.41937
C         35.14075        23.01102         0.99047
C         33.97092        22.33377         1.30326
C         35.22568        24.48828         1.10934
C         33.95874        25.22393         0.80427
C         35.24711        27.38665         1.05143
C         33.94467        26.70274         0.84249
C         35.26367        28.88538         1.20383
C         33.96691        29.66724         1.11475
C         35.26413        31.86270         1.07243
C         33.98620        31.10078         0.66523
C         35.32183        33.31525         0.57551
C         33.99467        33.99704         0.23378
C         35.29496        35.99678        -0.45848
C         34.08259        35.30893        -0.39195
C         35.30774        37.40737        -0.70673
C         34.07267        38.19365        -0.48709
C         35.25138        40.25194        -1.25544
C         33.98571        39.60493        -0.86005
C         35.26014        41.71640        -1.55755
C         33.95029        42.45526        -1.51569
C         35.30067        44.64715        -1.19370
C         33.99184        43.95120        -1.36594
C         35.25269        46.11417        -1.05503
C         33.99140        46.76706        -0.61155
C         35.28186        48.69464         0.27785
C         33.99300        48.06812        -0.13612
C         35.26600        50.09298         0.85041
C         33.98472        50.84215         0.82529
C         35.34103        53.02011         1.08879
C         34.05354        52.27662         1.22279
C         35.32720        54.45279         1.14662
C         34.07925        55.15281         1.07138
C         37.68290        15.88440         0.95739
C         36.50435        16.54337         1.10721
C         37.63761        18.74820         1.01395
C         36.38425        17.99484         1.10837
C         37.68783        20.13470         0.94395
C         36.37003        20.80187         0.85939
C         37.61304        22.94847         0.21035
C         36.33373        22.25424         0.58080
C         37.62187        24.45062         0.18181
C         36.49671        25.21297         0.79187
C         37.69080        27.35531         0.39025
C         36.49281        26.68238         0.62311
C         37.73500        28.79739         0.45460
C         36.57584        29.57082         0.93863
C         37.69993        31.67137         0.07436
C         36.57232        31.09392         0.81721
C         37.63138        33.04069        -0.47791
C         36.51616        33.90409        -0.06776
C         37.77678        35.92852        -0.81769
C         36.54063        35.25236        -0.42780
C         37.75495        37.38454        -0.87231
C         36.52923        38.07777        -0.82492
C         37.75428        40.31259        -0.63786
C         36.48324        39.55936        -0.75450
C         37.78780        41.75604        -1.04557
C         36.55244        42.50288        -1.44561
C         37.77251        44.69219        -1.02884
C         36.51544        43.98452        -1.23064
C         37.81528        46.06426        -0.85373
C         36.57013        46.85194        -0.89060
C         37.78497        48.78489         0.01055
C         36.57654        48.14988        -0.18874
C         37.86022        50.13346         0.63485
C         36.56678        50.84120         1.01578
C         37.82294        53.05101         1.16196
C         36.54504        52.32038         1.04395
C         37.80873        54.52113         1.05869
C         36.56646        55.19724         1.14378
C         37.77100        57.31886         1.21567
C         36.58491        56.61575         1.24449
C         40.35291        14.50846         0.03031
C         40.22239        15.96708         0.19165
C         38.93978        16.62316         0.67502
C         40.00263        18.80390         1.40634
C         38.88195        18.05624         1.08116
C         40.19209        20.19478         1.10793
C         38.92463        20.88279         0.83230
C         40.14801        22.99202         0.51077
C         38.89982        22.22218         0.42423
C         40.18013        24.36425        -0.09270
C         38.90901        25.18368        -0.08821
C         40.15356        27.34154         0.10332
C         38.94267        26.65645         0.10556
C         40.20401        28.78723         0.22240
C         38.93355        29.49394         0.26919
C         40.09986        31.57980        -0.32443
C         38.87136        30.91833         0.01363
C         40.13840        32.87912        -0.87717
C         38.91822        33.72158        -1.04724
C         40.13784        36.10733        -1.54316
C         38.96604        35.21774        -1.03431
C         40.20720        37.42690        -0.82706
C         38.99654        38.14702        -0.78326
C         40.27671        40.29956        -0.29503
C         39.01058        39.54575        -0.62540
C         40.25456        41.70766        -0.85802
C         39.00800        42.49614        -0.60190
C         40.35457        44.64594        -0.92914
C         39.04276        43.96384        -0.76391
C         40.33946        46.09686        -0.85039
C         39.06259        46.78465        -0.68900
C         40.24675        48.96243        -0.54110
C         39.02056        48.15246        -0.41393
C         40.26114        50.33373         0.01525
C         39.11195        50.91961         0.45128
C         40.33396        53.14749         0.56384
C         39.14652        52.32959         0.92356
C         40.26619        54.56103         0.63240
C         39.02431        55.24516         0.92059
C         40.23801        57.42754         0.84645
C         39.01148        56.66652         1.01683
C         40.27568        58.83119         1.02095
C         42.49950        14.78710        -1.12435
C         41.48052        13.99433        -0.61458
C         42.50732        16.29067        -0.97853
C         41.53177        16.69798         0.11524
C         42.90748        18.69572         0.70857
C         41.82527        17.76136         0.90690
C         42.77492        20.08949         0.81873
C         41.48042        20.79213         0.93774
C         42.75584        22.99040         0.42636
C         41.49694        22.26581         0.78895
C         42.73418        24.34327         0.10834
C         41.48240        25.09202        -0.16346
C         42.71725        27.31467         0.15954
C         41.43080        26.61867        -0.15339
C         42.73660        28.80553         0.41636
C         41.40980        29.51875         0.29123
C         42.40951        31.83036         0.22217
C         41.31619        30.94351         0.06829
C         42.58189        32.95438        -0.60192
C         41.41009        33.33373        -1.28529
C         42.69002        35.94326        -1.20625
C         41.49124        35.47647        -1.63533
C         42.78546        37.34257        -0.70105
C         41.48840        38.08933        -0.51328
C         42.75684        40.21915        -0.73599
C         41.55935        39.56005        -0.58810
C         42.79823        41.67160        -1.05201
C         41.51687        42.44355        -1.11315
C         42.83565        44.59156        -0.98633
C         41.53838        43.92834        -1.01340
C         42.81349        46.07203        -1.08843
C         41.53909        46.78749        -0.87173
C         42.84699        48.95491        -0.49265
C         41.57017        48.25902        -0.81793
C         42.82741        50.33213        -0.20131
C         41.58267        50.98968         0.35313
C         42.74213        53.23245         0.12532
C         41.54279        52.49531         0.24968
C         42.68217        54.63449         0.15698
C         41.45119        55.32115         0.37697
C         42.58309        57.54894         0.02153
C         41.41742        56.75055         0.44060
C         42.54204        58.99486         0.17740
C         41.42433        59.58840         0.71733
C         45.05262        16.58147        -1.57068
C         43.92703        16.78844        -0.64608
C         45.43300        18.64906         0.46018
C         44.11611        17.98267         0.29408
C         45.34870        20.17407         0.82075
C         44.02025        20.86628         0.69938
C         45.27772        23.00687         0.42288
C         44.00171        22.24200         0.47927
C         45.27796        24.47516         0.15198
C         43.97298        25.09210        -0.20103
C         45.26303        27.31684        -0.24494
C         43.96776        26.60421        -0.28122
C         45.25521        28.69639        -0.22965
C         44.07061        29.44772         0.13717
C         45.32582        31.59952        -0.19538
C         44.26742        30.79179         0.35376
C         45.18281        32.94935        -0.49544
C         43.89982        33.62380        -0.85421
C         45.21394        35.89523        -1.30013
C         43.92512        35.10608        -1.25906
C         45.23231        37.39962        -1.32456
C         44.00348        38.13127        -0.97001
C         45.30206        40.24667        -0.79111
C         44.02706        39.50940        -0.85485
C         45.32434        41.67617        -0.60793
C         44.08626        42.42218        -0.95057
C         45.34652        44.57535        -0.74232
C         44.02873        43.90335        -0.87056
C         45.38182        46.07756        -0.73926
C         44.11489        46.84432        -0.98233
C         45.28495        48.92590        -0.23089
C         44.07627        48.26580        -0.55966
C         45.25424        50.32791        -0.02555
C         44.04094        51.04215        -0.08450
C         45.37843        53.29004        -0.02647
C         44.01031        52.54071        -0.35011
C         45.23230        54.68550         0.57203
C         43.93837        55.39942         0.35166
C         45.26007        57.53689        -0.07275
C         43.96026        56.82752        -0.06452
C         46.28617        17.12798        -1.32691
C         47.89753        18.34036         0.15364
C         46.57530        17.99958        -0.22118
C         47.86523        20.36082         0.81145
C         46.60204        20.95695         0.64566
C         47.77294        23.03773         0.05052
C         46.57360        22.31577         0.28601
C         47.73603        24.38610        -0.64876
C         46.50574        25.18487        -0.29043
C         47.68333        27.22480        -0.99503
C         46.47733        26.53861        -0.45657
C         47.64508        28.70387        -1.07785
C         46.59698        29.41494        -0.21926
C         47.69093        31.60574        -0.79402
C         46.54936        30.90199        -0.48787
C         47.71902        33.03709        -0.66130
C         46.43472        33.74002        -0.51445
C         47.76503        35.89284        -0.95773
C         46.45888        35.22151        -0.83652
C         47.81323        37.36501        -1.08969
C         46.53862        38.14470        -1.20204
C         47.77282        40.22123        -0.49492
C         46.52226        39.56486        -0.78904
C         47.76247        41.64769        -0.21961
C         46.50731        42.34769        -0.33208
C         47.77567        44.51826        -0.01523
C         46.43277        43.81751         0.02173
C         47.73371        45.98962         0.21075
C         46.53370        46.79576        -0.14306
C         47.83513        48.94388        -0.09005
C         46.53180        48.16575        -0.07966
C         47.75035        50.28484         0.60496
C         46.44266        51.00132         0.55345
C         47.75433        53.21328         0.91789
C         46.43897        52.48883         0.72322
C         47.80853        54.72169         0.72693
C         46.51471        55.49329         0.58742
C         46.43177        56.89878         0.12149
C         50.27738        18.94089        -0.21856
C         49.13963        18.14465        -0.48381
C         50.30269        20.26533         0.26218
C         49.07113        21.00403         0.47109
C         50.26270        23.15995         0.23665
C         49.00697        22.39093         0.18728
C         50.30819        24.60329        -0.18276
C         49.02303        25.20840        -0.60814
C         50.25160        27.29788        -1.03019
C         49.00225        26.54011        -0.91537
C         50.22472        28.69706        -1.25522
C         48.93215        29.42156        -1.35224
C         50.17959        31.62387        -1.12598
C         48.92449        30.91628        -1.19505
C         50.19478        33.11737        -1.14079
C         48.90493        33.74729        -0.67789
C         50.10874        35.89435        -0.10760
C         48.90889        35.18378        -0.68116
C         50.20551        37.34668        -0.50447
C         49.04262        38.07252        -0.66600
C         50.22420        40.13135         0.01365
C         48.98727        39.49623        -0.46970
C         50.21837        41.64375         0.29174
C         48.95158        42.36373         0.04704
C         50.23705        44.49303         0.59734
C         48.95114        43.80684         0.12192
C         50.30165        45.94380         0.09591
C         49.02763        46.70193         0.40207
C         50.24171        48.81225         0.63808
C         49.06952        48.17897         0.32853
C         50.24518        50.27951         0.90303
C         49.00818        51.06289         0.70416
C         50.29162        53.15209         0.68372
C         49.02868        52.43978         0.82562
C         50.24150        54.56305         0.33549
C         49.10092        55.28785         0.29809
C         52.82107        20.37977         0.42346
C         51.55171        21.03537         0.32255
C         52.71788        23.28404         0.69187
C         51.52371        22.43087         0.35482
C         52.80408        24.59805        -0.12113
C         51.62827        25.24214        -0.51901
C         52.62756        27.36183        -1.49530
C         51.51970        26.61875        -1.02994
C         52.64622        28.77789        -1.62526
C         51.40848        29.44434        -1.45614
C         52.67091        31.69998        -1.63979
C         51.36973        30.91820        -1.57300
C         52.72762        33.19690        -1.28253
C         51.46814        33.60892        -0.41693
C         52.75992        35.83205        -0.15085
C         51.44414        35.11857        -0.11691
C         52.80442        37.28794        -0.48095
C         51.50227        38.04455        -0.55483
C         52.72725        40.15085        -0.13696
C         51.51733        39.47629        -0.24766
C         52.70260        41.59556         0.00483
C         51.53177        42.32461         0.18364
C         52.73069        44.47130         0.37794
C         51.54073        43.77691         0.28016
C         52.79366        45.92435         0.52516
C         51.54559        46.69402         0.52959
C         52.77136        48.86057         0.54422
C         51.49736        48.05900         0.72328
C         52.87957        50.27300         1.18740
C         51.54509        51.03557         1.09406
C         52.76596        53.07693         0.37123
C         51.51561        52.46994         0.73225
C         53.99285        21.09996         0.62456
C         55.14756        23.26531         1.11289
C         54.00216        22.49924         0.73079
C         55.15757        24.63422         0.79190
C         54.13914        25.20989        -0.06185
C         55.70904        27.12976        -0.53921
C         54.51840        26.34259        -0.78274
C         55.93404        28.37677        -1.18330
C         53.87525        29.54239        -1.79299
C         55.17107        31.67940        -1.57346
C         53.93214        30.92840        -1.63433
C         55.30695        32.95872        -1.04096
C         54.03977        33.61749        -0.62256
C         55.31348        35.83190        -0.34809
C         54.05885        35.06656        -0.23787
C         55.29600        37.24646        -0.22700
C         54.05901        38.01835        -0.20925
C         55.23259        40.17622        -0.02200
C         53.99893        39.41776        -0.14990
C         55.24348        41.54602        -0.08325
C         53.97740        42.36922        -0.28357
C         55.29690        44.42556         0.49615
C         53.99175        43.62971         0.59637
C         55.31398        45.91558         0.64792
C         53.99933        46.59723         0.66033
C         55.31831        48.81429         0.61028
C         54.02524        48.05849         0.84127
C         55.20140        50.24806         0.21604
C         54.05180        50.97049         0.50759
C         53.93600        52.37442         0.24229
C         57.36192        23.37605         2.18019
C         56.30170        22.65480         1.73719
C         57.40238        24.84156         2.05665
C         56.29957        25.47135         1.20737
C         57.89661        27.32195         0.59568
C         56.63490        26.68270         0.44169
C         58.11549        28.54761        -0.10008
C         57.10989        29.12835        -0.91496
C         58.03110        31.42509        -0.59168
C         57.18570        30.54796        -1.23446
C         57.81209        32.89823        -0.40708
C         56.54673        33.66533        -0.75355
C         57.78379        35.85074        -0.52627
C         56.51810        35.06295        -0.49317
C         57.76528        37.30864        -0.23823
C         56.54532        37.96558        -0.10935
C         57.81726        40.16490         0.26359
C         56.49401        39.41083         0.21373
C         57.82160        41.61932        -0.01730
C         56.52222        42.28829        -0.21199
C         57.78061        44.54695        -0.03883
C         56.50735        43.79284        -0.10906
C         57.77894        45.92638         0.04598
C         56.54784        46.67371         0.26652
C         57.73472        48.84405        -0.11253
C         56.52603        48.04650         0.22829
C         57.47121        50.15654        -0.74494
C         56.29802        50.80645        -0.54858
C         59.67459        25.07432         3.05442
C         58.70833        25.55393         2.15895
C         60.28390        27.32876         1.45888
C         58.92926        26.74085         1.42146
C         60.53118        28.67165         0.74037
C         59.37444        29.28854         0.01429
C         60.41086        31.62045         0.41172
C         59.30615        30.81332        -0.14617
C         60.37427        33.00217         0.22822
C         59.06661        33.67134        -0.03707
C         60.32227        35.90399        -0.06508
C         59.09950        35.13153        -0.36691
C         60.29181        37.29792        -0.17392
C         59.02905        38.02181        -0.14870
C         60.32939        40.13691         0.14933
C         59.05733        39.40378         0.04069
C         60.30548        41.67364         0.08439
C         58.99108        42.34449        -0.09567
C         60.18606        44.45531        -0.57201
C         59.00212        43.79020        -0.24914
C         60.17175        45.90498        -0.71805
C         59.13447        46.64149         0.11038
C         60.14460        48.75653        -1.00938
C         59.06014        48.14397        -0.20632
C         60.88628        25.77597         3.26562
C         61.20015        26.87059         2.50371
C         61.60754        29.57942         1.14844
C         61.54114        30.93054         0.97553
C         61.52591        33.82229         0.42409
C         61.50671        35.18872         0.27338
C         61.52660        38.04573        -0.24126
C         61.56099        39.39424        -0.14217
C         61.49805        42.40805        -0.36856
C         61.41346        43.71318        -0.73054
C         61.09259        46.56367        -1.48040
C         61.09217        48.00179        -1.60805
O         53.77625        26.67780        -1.91661
O         42.78270        27.82283         1.51752
O         35.34904        28.03395         2.37960
O         43.52247        46.59534        -2.28312
O         58.59372        35.46459        -1.70717
O         30.53358        24.57020        -0.22976
O         37.51814        42.04351        -2.44795
O         47.27579        27.91422        -2.24675
O         54.05241        33.98426         0.77846
O         60.95465        27.42487         0.12208
O         30.01146        33.45204        -2.19585
O         23.63914        29.12291        -3.07569
O         27.93953        22.55520         2.67489
O         40.81879        48.90789        -1.89935
O         35.29403        40.72824        -2.63809
O         50.16311        24.26358         1.26102
O         59.81753        29.92454        -1.22032
O         26.08224        41.79176         1.81610
O         33.45475        37.82685         0.80493
O         32.26420        35.60978        -2.03509
O         24.57263        28.37997         0.61359
O         56.24604        31.01521        -2.14677
O         46.32762        34.75122         0.56379
O         52.24449        37.63646        -1.79222
O         60.44464        40.97845         1.36216
O         33.38899        52.57171         2.50436
O         46.89429        50.30232         1.77660
O         47.37663        37.90948        -2.38770
O         51.92127        31.45057        -2.86672
O         44.21640        16.58973         0.76033
O         55.59963        45.02326         1.79558
O         39.46229        24.60487        -1.32060
O         43.17902        57.06268        -1.25029
O         39.25370        16.55067        -0.80205
O         28.79335        31.13506        -2.11557
O         45.33276        24.00824         1.53613
O         28.99549        26.52680         2.21416
O         57.11035        39.76300         1.49651
O         35.22592        48.93202         1.73863
O         25.12773        45.01923        -0.75319
O         52.13098        35.48959         1.12926
O         27.32169        39.65668         1.53829
O         41.44765        34.25605        -2.32952
O         37.28909        23.68680        -1.02245
O         41.02310        18.06666         2.00765
O         47.22330        55.43009         1.87260
O         41.50422        25.89245        -1.39823
O         47.02984        29.34510         1.12291
O         45.82194        45.29236        -1.91578
O         48.25628        46.29658         1.59083
O         50.74830        50.64885         2.25504
O         26.89923        27.66109         1.51971
O         55.03719        28.83674        -2.14460
O         37.91026        33.13705        -1.92448
O         54.84590        48.48678         1.95887
O         43.81657        52.57700        -1.75159
O         30.71702        22.84470         3.01081
O         43.36567        31.48826         1.16380
O         38.94335        43.28800         0.60203
O         33.38001        24.53437        -0.37591
O         58.72484        48.92322         0.99742
O         45.49592        19.14230         1.82841
O         47.97638        19.07766         1.35733
O         40.75249        22.97041         1.84378
O         43.97416        34.06298        -2.26730
O         30.64944        46.63898        -1.88718
O         35.87085        46.84524        -2.18133
O         46.85482        52.89514         2.03720
O         42.23476        37.51865         0.65717
O         37.00083        30.43172         2.05218
O         33.11249        29.41732         2.27737
O         58.11233        33.28320         1.00723
O         29.50359        48.74287        -1.37531
O         27.26199        49.87990        -0.74951
O         44.41013        55.01454         1.71297
O         48.81750        30.23526        -2.56129
O         37.41345        50.20882         2.02777
O         43.59220        41.92938        -2.25956
O         38.67966        52.56143         2.28179
O         40.69215        41.88862        -2.22233
O         56.33301        25.60736         2.68407
O         56.40878        43.16360        -1.42189
O         50.11884        40.67406         1.37910
O         36.11641        24.88944         2.19454
O         33.82632        43.30821        -2.70838
O         43.92624        25.77582        -1.48936
O         34.63420        34.12935         1.55628
O         45.23563        36.61138        -2.56646
O         36.89861        40.08090         0.56155
O         36.01046        21.24492        -0.47689
O         26.66696        35.50900        -2.55257
H         27.47976        35.06274        -2.87599
O         59.57116        46.51247         1.48654
H         59.19084        47.28175         1.97224
O         31.18512        43.94736        -2.70703
H         32.04246        43.72799        -3.15036
O         30.99707        31.41185         1.85231
H         31.62563        30.98728         2.48180
O         49.70199        35.97905         1.29988
H         50.52287        36.02160         1.84520
O         53.19308        50.18285         2.57936
H         52.34259        50.14409         3.07484
O         46.00290        53.56229        -1.30539
H         45.31450        53.26266        -1.98109
O         41.73065        50.72175         1.79849
H         40.98774        51.15610         2.27313
O         52.57460        23.71237         2.09143
H         51.65784        24.07870         2.18588
O         39.76210        36.40432        -2.93359
H         39.91879        35.58727        -3.45638
O         35.09957        31.95828         2.50053
H         35.56721        31.19223         2.91181
O         53.90645        43.13726         1.94869
H         54.20644        43.86129         2.54538
O         50.39137        45.85944        -1.35580
H         50.42684        46.76983        -1.71776
O         42.11768        16.89514        -2.23894
H         41.16302        16.70466        -2.37162
O         50.17345        44.49163         2.04025
H         49.40553        45.05687         2.30410
O         47.57335        24.01642        -2.06778
H         47.35990        24.83375        -2.56927
O         52.78259        49.12292        -0.90126
H         52.71442        48.26362        -1.36941
O         50.25860        33.52485        -2.55150
H         49.64967        32.94580        -3.05937
O         35.55728        20.26341         3.02437
H         34.80161        19.91368         3.54176
O         25.85041        27.68714        -2.40072
H         25.08036        27.57671        -3.00695
O         53.88896        42.80686        -1.66183
H         54.11226        42.05403        -2.24700
O         29.48026        46.67051         1.51899
H         29.42702        45.74637         1.84377
O         51.53197        32.89007         0.81645
H         52.15524        33.38317         1.40370
O         27.01388        25.01138         2.80517
H         27.25693        25.94940         2.99090
O         40.25584        40.48810         1.15637
H         40.22233        39.60471         1.58186
O         45.99073        43.88436         1.41811
H         46.69604        43.50116         1.98228
O         31.43116        50.56576         2.49562
H         32.15320        51.09896         2.91356
O         52.77339        33.95170        -2.50217
H         52.04764        33.62133        -3.08672
O         48.04583        49.26857        -1.50967
H         47.69866        48.53368        -2.05910
O         33.10059        23.61644         3.06454
H         32.28911        23.52994         3.62072
H         23.72640        23.29842        -1.82062
H         21.94932        24.35559        -3.15345
H         21.63742        26.83195        -3.12383
H         20.98149        28.73155        -1.15672
H         20.81540        31.16169        -1.07772
H         20.72415        33.13798        -1.21763
H         20.63879        35.54994        -0.91510
H         20.61331        37.50916        -0.84741
H         20.56725        39.89431        -0.37608
H         20.60512        41.86425        -0.01333
H         20.72125        44.24175         0.52366
H         20.80628        45.83388         1.69540
H         22.95775        49.52654         2.11813
H         20.87488        48.22346         2.31633
H         24.61238        22.54595        -0.31133
H         24.65618        50.40920         2.20854
H         26.32239        21.38022         0.94781
H         26.67240        51.72385         1.95598
H         30.21917        19.25075         0.89466
H         28.10390        20.39226         0.85215
H         30.27518        54.14786         1.06183
H         28.13167        52.93442         1.04014
H         31.77623        18.21897         1.51759
H         31.96082        55.11273         0.86550
H         33.81471        16.95053         1.28273
H         34.08945        56.24446         0.95819
H         37.69269        14.78422         0.95508
H         35.59048        15.95116         1.26420
H         37.73211        58.41177         1.31040
H         35.65112        57.17672         1.37264
H         39.52872        13.84017         0.31473
H         39.38953        59.36341         1.38892
H         43.32257        14.31651        -1.68182
H         41.54519        12.90521        -0.76089
H         43.40104        59.59698        -0.14543
H         41.39893        60.67718         0.86188
H         44.88632        15.98683        -2.47998
H         45.25999        58.59151        -0.38420
H         47.12110        16.86002        -1.99254
H         47.36842        57.47161         0.05055
H         51.22855        18.54936        -0.61430
H         49.24253        17.34288        -1.23025
H         51.17942        55.07077         0.07405
H         49.14547        56.35552         0.03916
H         52.86973        19.28313         0.38569
H         52.79280        54.15034         0.14215
H         54.94025        20.54779         0.70838
H         54.82938        52.92555        -0.08347
H         58.24679        22.85505         2.57307
H         56.31210        21.56202         1.85300
H         58.27223        50.64375        -1.31832
H         56.16920        51.80065        -0.99952
H         59.47094        24.17233         3.64614
H         60.17003        49.85184        -1.09047
H         61.59047        25.41351         4.02696
H         62.17625        27.36170         2.61080
H         62.52107        29.13933         1.57133
H         62.39686        31.52952         1.31598
H         62.47893        33.34407         0.68532
H         62.43449        35.74462         0.46270
H         62.46474        37.50055        -0.41112
H         62.52018        39.92672        -0.18333
H         62.47377        41.90418        -0.36075
H         62.32346        44.24900        -1.03471
H         61.86097        46.00091        -2.02966
H         61.88605        48.47511        -2.20213
