         640
 CSIRO Nanostructure Databank - Neutral Graphene Oxide Data Set
C         22.90545        27.37544        -0.83053
C         22.85710        28.69441        -1.13726
C         22.99314        31.59263        -0.59380
C         23.01968        32.95483        -0.32530
C         23.06693        35.84702         0.10543
C         23.08523        37.20347         0.35498
C         23.12840        40.06438         0.93718
C         23.06638        41.40943         1.00325
C         23.16679        44.24472         1.65387
C         23.24409        45.55984         2.17511
C         25.38260        24.65669        -0.05401
C         24.16557        25.36351        -0.21840
C         25.41317        27.20163        -1.35080
C         24.14288        26.64221        -0.73274
C         25.40393        28.72850        -1.45351
C         24.09611        29.47598        -1.37774
C         25.36097        31.62827        -1.17695
C         24.14214        30.91571        -1.03363
C         25.35011        33.03725        -0.99288
C         24.18983        33.71218        -0.54612
C         25.42833        35.89294        -0.49372
C         24.22700        35.15531        -0.31888
C         25.46157        37.29791        -0.22976
C         24.27298        37.96626         0.19970
C         25.47285        40.12314         0.17045
C         24.29239        39.37715         0.41755
C         25.47037        41.54592         0.30071
C         24.14509        42.27503         0.41057
C         25.51152        44.32380         0.98235
C         24.26442        43.62357         1.08527
C         25.60986        45.66443         1.54210
C         24.43271        46.26206         2.14521
C         25.67095        48.30704         2.64078
C         24.50085        47.64194         2.59028
C         27.89951        23.19454         0.24395
C         27.87039        24.59601         0.03826
C         26.61844        25.27672        -0.25519
C         27.84966        27.36584        -0.67185
C         26.66130        26.64124        -0.70283
C         27.85667        28.79696        -0.94093
C         26.65142        29.48502        -1.20522
C         27.85458        31.60683        -1.24437
C         26.62634        30.90390        -1.28290
C         27.87451        33.05684        -1.45167
C         26.54952        33.82339        -1.31414
C         27.83611        35.93634        -1.05925
C         26.62768        35.24459        -0.94506
C         27.87651        37.36387        -0.80581
C         26.67336        38.03261        -0.39658
C         27.89662        40.17635        -0.33626
C         26.68813        39.44064        -0.18498
C         27.90203        41.59673        -0.15183
C         26.65576        42.28175         0.16031
C         27.83481        44.50760         0.10879
C         26.63750        43.70086         0.41646
C         27.87574        45.98346         0.53225
C         26.79964        46.36508         1.51739
C         28.10046        48.46962         1.87387
C         26.97448        47.59577         2.38489
C         28.04599        49.83664         1.79855
C         30.32478        23.21911         0.46730
C         29.09325        22.52677         0.43694
C         30.32516        24.64085         0.32200
C         29.08128        25.32276         0.07163
C         30.26692        27.46581        -0.17150
C         29.07842        26.73605        -0.23406
C         30.30480        28.84359        -0.55454
C         29.07583        29.52100        -0.85140
C         30.32555        31.65834        -1.01330
C         29.08429        30.93295        -1.04055
C         30.33469        33.08915        -1.11490
C         29.11362        33.80176        -1.23567
C         30.31172        35.92459        -1.28203
C         29.08881        35.21775        -1.23992
C         30.26487        37.39742        -1.58440
C         29.06605        38.08970        -0.96723
C         30.31334        40.23491        -0.83956
C         29.10326        39.49754        -0.72084
C         30.34219        41.61513        -0.54988
C         29.12080        42.29630        -0.25527
C         30.41165        44.46702        -0.03733
C         29.12523        43.77224        -0.20073
C         30.40992        45.83797         0.42368
C         29.25741        46.45297         0.91556
C         30.50743        48.62792         1.10137
C         29.40607        47.76221         1.64163
C         30.43710        50.03515         1.24783
C         29.21243        50.62221         1.55851
C         32.82814        20.44436         0.95656
C         31.61769        21.11834         0.82712
C         32.80114        23.24399         0.62565
C         31.57765        22.51641         0.63977
C         32.78547        24.68303         0.54882
C         31.54397        25.36540         0.41214
C         32.76393        27.55992         0.17421
C         31.46473        26.87643         0.53048
C         32.76733        28.80219        -0.41123
C         31.53376        29.53224        -0.65082
C         32.78111        31.67682        -0.99717
C         31.55957        30.95304        -0.89937
C         32.80037        33.08657        -1.12541
C         31.56469        33.80902        -1.12533
C         32.78663        35.95180        -1.37586
C         31.54627        35.23532        -1.24874
C         32.77141        37.41379        -1.39706
C         31.57007        38.10216        -1.33645
C         32.83098        40.27635        -1.10638
C         31.53405        39.60253        -1.46410
C         32.82846        41.66719        -0.81183
C         31.59892        42.34449        -0.57113
C         32.86175        44.44689        -0.24491
C         31.60885        43.74827        -0.25803
C         32.81487        45.91213        -0.19612
C         31.64411        46.58646         0.36931
C         32.90734        48.73690         0.48886
C         31.67753        47.96826         0.63650
C         32.91911        50.12464         0.72985
C         31.71781        50.84494         1.29141
C         32.80595        52.94817         0.55784
C         31.66136        52.26164         0.77415
C         35.36365        19.00411         0.40111
C         35.33994        20.36930         1.05504
C         34.04444        21.12767         0.87689
C         35.27480        23.27835         0.71970
C         34.04237        22.54381         0.73693
C         35.25975        24.70058         0.66835
C         34.02171        25.39256         0.61035
C         35.29297        27.53307         0.36336
C         33.99922        26.89647         0.75133
C         35.29787        28.85170        -0.28343
C         34.04307        29.47010        -0.79152
C         35.30888        31.70987        -0.94342
C         34.05237        30.92218        -1.28903
C         35.30198        33.10762        -1.20797
C         34.03481        33.80998        -1.31556
C         35.23245        35.93488        -1.84013
C         33.99104        35.22161        -1.46840
C         35.25363        37.43685        -1.82316
C         34.01242        38.16367        -1.48425
C         35.32580        40.34129        -1.51400
C         34.03746        39.55704        -1.30876
C         35.31662        41.71141        -0.88435
C         34.09567        42.37341        -0.69075
C         35.34361        44.50063        -0.33617
C         34.08858        43.78721        -0.42445
C         35.37445        45.90251        -0.16543
C         34.12675        46.67200        -0.22818
C         35.35473        48.74658         0.30973
C         34.12597        48.07099         0.21475
C         35.35374        50.15928         0.45204
C         34.12147        50.85708         0.59063
C         35.32138        53.00396         0.52281
C         34.11334        52.30104         0.60242
C         35.38957        54.45118         0.65437
C         37.81353        18.96800         0.45490
C         36.52677        18.33851         0.21782
C         37.83555        20.47552         0.31728
C         36.54196        21.17378         0.66955
C         37.78354        23.29105         0.63489
C         36.52929        22.56040         0.69629
C         37.76171        24.73214         0.57073
C         36.51964        25.41896         0.63184
C         37.76472        27.54239         0.36613
C         36.51560        26.84628         0.48589
C         37.76710        29.01025         0.30750
C         36.47948        29.71135        -0.03720
C         37.74384        31.78827        -0.49688
C         36.50756        31.08696        -0.55837
C         37.76100        33.15642        -0.90625
C         36.54639        33.80006        -1.24549
C         37.78553        35.98436        -1.52672
C         36.54559        35.20019        -1.73396
C         37.79218        37.33342        -1.36716
C         36.58153        38.14485        -1.59238
C         37.78422        40.22743        -0.94575
C         36.58348        39.56470        -1.20460
C         37.80092        41.66543        -0.73719
C         36.56358        42.37549        -0.66968
C         37.80981        44.45539        -0.16109
C         36.58038        43.77864        -0.37109
C         37.82234        45.87538         0.06145
C         36.58927        46.59683         0.04671
C         37.81178        48.71277         0.37809
C         36.59856        48.02140         0.23037
C         37.81841        50.15418         0.45920
C         36.58716        50.87067         0.44221
C         37.80987        52.98416         0.34131
C         36.57994        52.29329         0.43644
C         37.78898        54.44745        -0.02984
C         36.54655        55.12815         0.49443
C         40.23912        16.15064         0.47868
C         39.07408        16.82732         0.47158
C         40.27544        19.00791         0.68390
C         39.00623        18.27928         0.57217
C         40.28168        20.42525         0.81356
C         38.97722        21.12810         1.08169
C         40.24002        23.28738         0.70032
C         39.00867        22.60956         0.76530
C         40.27069        24.70865         0.20971
C         38.98334        25.44531         0.45510
C         40.25060        27.59981         0.34458
C         38.99057        26.85826         0.37970
C         40.26021        28.99917         0.19139
C         39.02126        29.73793         0.07514
C         40.25261        31.89372        -0.05039
C         38.97896        31.09790        -0.19677
C         40.23769        33.19401        -0.80482
C         39.03857        33.82828        -1.05485
C         40.29444        35.96260        -1.36612
C         39.05228        35.19481        -1.70172
C         40.29860        37.33714        -1.16130
C         39.00648        38.01282        -0.77825
C         40.24692        40.18756        -0.74199
C         39.03173        39.51361        -0.89713
C         40.27933        41.62011        -0.56433
C         39.03643        42.33599        -0.53669
C         40.28351        44.40285        -0.02959
C         39.05577        43.74073        -0.23911
C         40.28908        45.79416         0.54166
C         39.03446        46.56990         0.25939
C         40.28395        48.67828         0.52333
C         39.05542        47.98340         0.39441
C         40.28565        50.12714         0.92996
C         39.02932        50.86870         0.55828
C         40.29505        53.00396         0.49286
C         39.03102        52.28034         0.45929
C         40.29744        54.42180         0.43505
C         39.08496        55.16925         0.26931
C         40.35329        57.25117         0.32471
C         39.13274        56.55364         0.21386
C         42.68808        16.24683        -0.11020
C         41.56148        16.82309         0.70877
C         42.71519        19.04579         0.43033
C         41.49325        18.32324         0.57428
C         42.71755        20.46624         0.59712
C         41.47972        21.14751         0.80924
C         42.69610        23.32001         0.85634
C         41.47117        22.59781         0.81830
C         42.66004        24.76417         0.92566
C         41.49445        25.46267         0.66681
C         42.69408        27.62335         0.67116
C         41.48453        26.90625         0.58011
C         42.73444        28.99597         0.30787
C         41.51009        29.69809         0.07907
C         42.74071        31.73860        -0.47011
C         41.52143        31.08530        -0.22304
C         42.75905        33.12330        -0.90001
C         41.50658        33.84013        -1.08109
C         42.75064        35.95489        -1.55836
C         41.50406        35.21062        -1.36395
C         42.77320        37.38181        -1.19519
C         41.52146        38.06320        -1.00411
C         42.71517        40.15828        -0.50837
C         41.50000        39.46305        -0.74589
C         42.75060        41.55981        -0.32756
C         41.51030        42.29404        -0.37361
C         42.75720        44.42826        -0.08350
C         41.52264        43.71999        -0.16270
C         42.76427        45.87254         0.07245
C         41.54602        46.57042         0.26510
C         42.75636        48.71622         0.37824
C         41.52662        47.98265         0.39601
C         42.75908        50.15746         0.47449
C         41.55008        50.86491         0.58722
C         42.77146        53.00623         0.56415
C         41.52653        52.28777         0.54770
C         42.76208        54.41726         0.64245
C         41.54414        55.12692         0.54405
C         42.81861        57.26583         0.49611
C         41.54829        56.56205         0.47774
C         43.79315        16.97878        -0.37960
C         45.08543        19.13893        -0.22979
C         43.89462        18.38283        -0.02084
C         45.12622        20.52711         0.14795
C         43.93219        21.19460         0.53302
C         45.17814        23.29560         0.90081
C         43.94177        22.61958         0.77583
C         45.17337        24.69446         1.41179
C         43.88273        25.47786         1.37689
C         45.22192        27.69804         1.11811
C         43.85943        27.02172         1.43329
C         45.23170        29.01663         0.40842
C         43.98410        29.68394         0.15171
C         45.22549        31.70219        -0.51159
C         43.98209        31.03260        -0.29539
C         45.24146        33.08113        -0.88721
C         43.98804        33.75846        -1.10347
C         45.26847        35.93890        -1.22291
C         44.03601        35.18355        -1.47963
C         45.24980        37.29865        -0.99785
C         43.98139        37.99741        -0.89867
C         45.27231        40.10899        -0.25790
C         43.95004        39.37023        -0.38276
C         45.23565        41.57460        -0.25200
C         44.00688        42.25410        -0.16807
C         45.21716        44.40493        -0.04195
C         44.01134        43.71585        -0.10360
C         45.24825        45.88014        -0.35001
C         43.98021        46.59971         0.04480
C         45.21836        48.74231         0.29191
C         43.97911        48.00907         0.22394
C         45.24570        50.14125         0.34536
C         44.00477        50.87704         0.40988
C         45.25816        53.01734         0.39752
C         44.01082        52.28308         0.50005
C         45.27522        54.42487         0.49764
C         44.03966        55.14651         0.99404
C         43.98664        56.61686         0.66424
C         47.34175        19.35641        -1.12434
C         46.24468        18.57168        -0.83227
C         47.39159        20.70922        -0.70522
C         46.33643        21.27796         0.04183
C         47.63942        23.19695         1.01015
C         46.40304        22.60433         0.65588
C         47.72894        24.65455         1.24171
C         46.48256        25.43751         1.46121
C         47.75128        27.48086         0.59042
C         46.51362        26.91828         1.19570
C         47.76869        28.99727         0.48267
C         46.44038        29.63090         0.09361
C         47.66931        31.66410        -0.70181
C         46.45530        30.99046        -0.38812
C         47.69611        33.04585        -0.98275
C         46.47536        33.75285        -1.06168
C         47.77153        35.91753        -1.17979
C         46.51592        35.18305        -1.54435
C         47.75326        37.33199        -1.05368
C         46.51007        38.03236        -0.88747
C         47.73519        40.14786        -0.62743
C         46.51574        39.40802        -0.62762
C         47.70336        41.56983        -0.34557
C         46.50401        42.25193        -0.20704
C         47.76306        44.44093        -0.03348
C         46.49928        43.67921         0.28976
C         47.72619        45.88517         0.06403
C         46.51017        46.55551         0.11770
C         47.79513        48.76156         0.41421
C         46.45942        47.97388         0.44762
C         47.72878        50.20142         0.15379
C         46.49687        50.87287         0.24172
C         47.68467        53.02598        -0.06244
C         46.47585        52.30761         0.17031
C         47.64940        54.43720        -0.02912
C         46.47913        55.11452         0.28081
C         50.20880        20.49309         1.98941
C         48.88466        21.09342         1.70252
C         50.08982        23.15570         0.96431
C         48.87653        22.48297         1.15179
C         50.13862        24.56782         0.68358
C         48.96198        25.32963         0.77280
C         50.14372        27.29076        -0.24538
C         48.90399        26.73344         0.44509
C         50.20611        28.79392        -0.24654
C         48.90519        29.47366        -0.40064
C         50.21115        31.54262        -1.26225
C         48.89498        30.86545        -0.90356
C         50.17671        33.03984        -1.06691
C         48.97853        33.74604        -1.12286
C         50.20345        35.93203        -1.21239
C         48.97757        35.20483        -1.15145
C         50.22466        37.34104        -1.20817
C         48.98571        38.06156        -1.04638
C         50.17757        40.27421        -1.05346
C         48.94917        39.47292        -0.87511
C         50.23461        41.64394        -0.54744
C         48.99286        42.26230         0.05233
C         50.21231        44.47483        -0.20759
C         48.95543        43.76269        -0.13825
C         50.20803        45.89541        -0.12417
C         48.98289        46.61166         0.05070
C         50.21494        48.74443        -0.14948
C         49.00808        48.01695         0.08359
C         50.18229        50.18172        -0.27707
C         48.94311        50.89557        -0.15563
C         50.12798        52.98009        -0.61465
C         48.91998        52.30877        -0.29252
C         51.34477        21.06651         1.57130
C         52.65888        23.07471         0.85744
C         51.32617        22.31653         0.72935
C         52.60175        24.50594         0.33155
C         51.41419        25.20031         0.37442
C         52.67006        27.36339        -0.20022
C         51.42049        26.70587         0.35161
C         52.66432        28.73599        -0.29664
C         51.39907        29.47325        -0.34426
C         52.63268        31.59705        -0.56912
C         51.43361        30.89497        -0.62358
C         52.65094        33.03843        -0.78909
C         51.44364        33.71205        -1.03581
C         52.75946        35.90063        -1.23930
C         51.44447        35.15220        -1.34167
C         52.69110        37.36879        -1.13852
C         51.49886        38.05074        -1.23846
C         52.72992        40.28523        -0.99400
C         51.50192        39.53774        -1.30444
C         52.70041        41.64600        -0.71589
C         51.43479        42.34067        -0.54119
C         52.67300        44.49069        -0.25909
C         51.44025        43.77616        -0.31213
C         52.66248        45.89501        -0.14500
C         51.44285        46.61006        -0.14414
C         52.67290        48.77156        -0.37471
C         51.43814        48.04652        -0.20367
C         52.64298        50.17561        -0.60557
C         51.38097        50.88604        -0.55505
C         51.31548        52.29271        -0.74498
C         54.74420        22.80957        -0.46914
C         53.73745        22.23688         0.21578
C         54.80066        24.24632        -0.60473
C         53.83150        25.11664        -0.16481
C         55.18299        27.35307        -0.13074
C         53.91852        26.59551        -0.57741
C         55.12401        28.76504        -0.00769
C         53.90290        29.49070        -0.26431
C         55.07880        31.65112        -0.03909
C         53.87596        30.89390        -0.28443
C         55.07087        33.08230        -0.14478
C         53.89024        33.77591        -0.58741
C         55.13067        35.93316        -0.46019
C         53.93553        35.17810        -0.73252
C         55.18390        37.31882        -0.69594
C         53.99749        38.05520        -1.14297
C         55.23819        40.24860        -0.62258
C         54.01214        39.56934        -1.08229
C         55.19413        41.66815        -0.46670
C         53.94588        42.37613        -0.50408
C         55.17502        44.50198        -0.25577
C         53.93261        43.77014        -0.31802
C         55.18205        45.91335        -0.20089
C         53.92569        46.65246         0.15838
C         55.12633        48.77841        -0.47828
C         53.91194        48.08592        -0.30863
C         55.07533        50.16443        -0.78129
C         53.87270        50.84150        -0.83262
C         57.97473        24.76466        -0.05959
C         56.78383        25.39081        -0.38322
C         57.53200        27.44434         0.63361
C         56.44351        26.71049         0.05723
C         57.46851        28.84993         0.71501
C         56.29408        29.52694         0.34207
C         57.43309        31.71248         0.72836
C         56.26174        30.96772         0.33004
C         57.41449        33.13729         0.67641
C         56.25341        33.82451         0.17462
C         57.50059        35.97471         0.29708
C         56.29953        35.23217         0.00127
C         57.59860        37.35893        -0.00565
C         56.50404        38.04692        -0.78205
C         57.63715        40.23371        -0.18561
C         56.41925        39.53120        -0.45773
C         57.65234        41.65948        -0.19899
C         56.41955        42.37464        -0.30847
C         57.65618        44.50899        -0.22790
C         56.41738        43.79674        -0.27591
C         57.64435        45.93361        -0.26747
C         56.40006        46.64014        -0.27408
C         57.63224        48.75349        -0.37242
C         56.39758        48.06973        -0.36153
C         58.90955        25.42222         0.77058
C         59.64747        27.49703         1.93191
C         58.71652        26.75871         1.08642
C         59.62181        28.84402         1.96169
C         58.77111        29.57207         0.94709
C         59.70377        31.79301         1.61265
C         58.60805        31.05045         1.16416
C         59.67642        33.18201         1.59946
C         58.56207        33.87481         1.08837
C         59.75035        36.06235         1.24987
C         58.60462        35.31135         0.90286
C         59.82492        37.41365         0.97613
C         58.76267        38.07860         0.31881
C         60.04765        40.22837         0.16738
C         58.83974        39.51594         0.06948
C         60.07899        41.61360         0.05604
C         58.89141        42.36383        -0.09581
C         60.10504        44.55790        -0.15511
C         58.89660        43.80768        -0.16004
C         60.09815        45.93505        -0.21629
C         58.87178        46.65648        -0.26926
C         58.83959        48.07287        -0.31395
O         50.73454        40.10724        -2.40862
O         47.85658        20.50133         2.02659
O         47.30750        25.07472         2.61717
O         33.33531        46.50152        -1.45428
O         35.87771        35.36785        -3.03327
O         36.91728        29.63075         1.35783
O         48.57239        29.70817        -1.81537
O         46.04972        27.73174         2.33875
O         34.88893        28.67747        -1.71458
O         44.38037        24.89579         2.63274
O         43.45443        35.55142        -2.79634
O         28.27342        44.36357        -1.28451
O         35.99889        37.97879        -2.96381
O         44.61437        39.51584         0.92673
O         27.11579        33.51150        -2.62288
O         55.93547        24.71856        -1.28114
O         52.24750        35.43924        -2.53826
O         54.21959        38.86902        -2.37506
O         24.72869        29.18271        -2.68351
O         47.18293        48.33707         1.67160
O         40.27750        32.29939         1.37303
H         40.17514        31.48567         1.91226
O         30.04920        37.48277        -3.04130
H         30.29334        38.40723        -3.30502
O         38.07898        20.74307        -1.09925
H         37.37671        20.29150        -1.61276
O         59.50442        29.47696        -0.33039
H         59.60593        28.52233        -0.53411
O         50.41268        31.36061        -2.69545
H         49.93765        30.53299        -2.94196
O         46.53289        43.55058         1.76921
H         45.70962        43.08878         2.04059
O         40.26866        50.09565         2.42282
H         39.40535        49.71331         2.69071
O         45.30064        45.96846        -1.83322
H         44.47933        45.55582        -2.17742
O         53.94995        26.60431        -2.03898
H         54.75689        26.11002        -2.30821
O         38.66522        20.97102         2.49920
H         39.40193        21.36002         3.01614
O         31.20709        27.13165         1.96053
H         32.08345        27.07958         2.41846
O         52.95291        23.16997         2.28173
H         53.83291        23.58885         2.38200
O         34.06749        30.84946        -2.75029
H         34.59516        30.04964        -2.98510
O         48.08364        29.49370         1.81469
H         47.44091        29.06027         2.42949
O         31.98456        50.96735         2.74250
H         32.81641        51.47909         2.83997
O         53.96079        46.73449         1.64198
H         54.75965        47.25087         1.88322
O         46.53963        35.11291        -3.01954
H         45.61181        35.02759        -3.33342
O         25.44051        26.68747        -2.71857
H         24.96719        27.35587        -3.26869
O         51.38014        27.09419         1.76285
H         52.07742        26.59890         2.24089
O         29.94043        47.39517         3.02583
H         30.23609        48.23639         3.44057
O         27.38477        47.09947         3.71006
H         28.36923        46.96512         3.68039
O         43.54597        27.36374         2.80423
H         44.14321        26.82010         3.36862
O         50.05535        26.87880        -1.63676
H         49.47993        27.52062        -2.10700
O         23.72831        42.56464        -0.97318
H         23.71743        41.71227        -1.45817
O         51.22937        21.87943        -0.66875
H         51.16953        22.69056        -1.21872
O         40.28811        45.58850         2.02154
H         40.42837        46.46951         2.43120
O         31.36428        39.87090        -2.93400
H         32.24991        39.77106        -3.34819
O         56.88393        37.98130        -2.20364
H         56.10779        38.32837        -2.70788
O         49.08307        42.05464         1.50628
H         48.32112        42.54405         1.90367
O         41.91271        16.54933         2.11491
H         42.76818        16.99602         2.29126
O         40.40338        24.61260        -1.26682
H         39.66667        24.04677        -1.58400
O         44.13663        55.07939         2.46544
H         43.31642        55.47589         2.82870
O         35.37886        40.60473        -2.96512
H         35.58131        39.73300        -3.39161
O         37.66970        54.48308        -1.49936
H         36.86247        53.97941        -1.73802
O         33.88742        27.13768         2.23599
H         34.68049        26.73433         2.65215
O         38.86789        37.76544         0.67671
H         39.62647        38.20050         1.12237
O         39.12603        34.95819        -3.15226
H         38.21587        34.78815        -3.47996
O         35.48651        20.14151         2.50671
H         36.44958        20.08421         2.70002
O         27.52929        46.76618        -0.66426
H         27.84916        46.23757        -1.43473
O         48.45225        21.46640        -1.08593
H         49.13786        20.91431        -1.51308
H         21.97176        26.83186        -0.61667
H         21.88488        29.19935        -1.22426
H         22.05301        31.04364        -0.45043
H         22.09933        33.43447         0.03074
H         22.11999        35.30769         0.23573
H         22.15197        37.69055         0.66491
H         22.28436        39.47336         1.31840
H         22.15474        41.87887         1.39675
H         22.19159        43.74153         1.68571
H         22.34024        46.02878         2.58960
H         25.33326        23.63352         0.34112
H         23.22717        24.89223         0.11133
H         25.69858        49.33751         3.02340
H         23.56028        48.13789         2.87495
H         26.96964        22.61213         0.20826
H         27.10400        50.36873         1.99477
H         29.06696        21.43634         0.55934
H         29.13485        51.71353         1.66000
H         32.81700        19.35923         1.12641
H         30.68881        20.53663         0.88336
H         32.75643        54.00960         0.27282
H         30.69110        52.77404         0.69546
H         34.41307        18.49112         0.19446
H         34.48005        54.99402         0.95138
H         36.49605        17.29513        -0.13253
H         36.55132        56.21925         0.63154
H         40.23855        15.05401         0.38384
H         38.13470        16.26995         0.34462
H         40.36090        58.34820         0.25280
H         38.21526        57.13286         0.04200
H         42.64839        15.18188        -0.38446
H         42.80395        58.35570         0.34196
H         44.63303        16.50149        -0.90422
H         44.91829        57.19888         0.69643
H         48.20499        18.93001        -1.65569
H         46.25773        17.51340        -1.12356
H         48.56405        55.02010        -0.19841
H         46.51609        56.20886         0.35817
H         50.22899        19.56751         2.58311
H         50.13203        54.06814        -0.76153
H         52.31753        20.61042         1.81212
H         52.22441        52.85784        -0.98946
H         55.54374        22.21274        -0.92914
H         53.69469        21.14480         0.33189
H         56.00317        50.72239        -0.96428
H         53.88789        51.91879        -1.04399
H         58.17718        23.75475        -0.43812
H         57.65000        49.85070        -0.41812
H         59.81328        24.89614         1.10759
H         60.34079        26.92428         2.56612
H         60.30662        29.39958         2.61780
H         60.61889        31.28168         1.94024
H         60.56634        33.72522         1.94087
H         60.60479        35.58109         1.74226
H         60.72406        37.96951         1.27349
H         60.99395        39.69140         0.31842
H         61.04970        42.12233         0.12324
H         61.07098        44.03707        -0.11250
H         61.04612        46.49209        -0.21864
H         59.78586        48.63255        -0.31150
