         236
 CSIRO Nanostructure Databank - Neutral Graphene Oxide Data Set
C        -11.27159         0.66393        -0.63640
C        -10.02651         1.38457        -0.80090
C         -8.93438         0.65382        -1.55379
C         -7.55967         1.49991        -1.64414
C         -6.28915         0.67370        -1.38908
C         -5.00877         1.36183        -1.67813
C         -3.71518         0.73226        -1.41676
C         -2.48790         1.47472        -1.32992
C         -1.21780         0.78042        -1.07297
C          0.02411         1.42027        -1.05617
C          1.26357         0.73702        -0.72677
C          2.53316         1.46604        -0.81901
C          3.72636         0.77316        -0.76008
C          5.04666         1.44517        -0.69145
C          6.25712         0.67005        -1.20666
C          7.56192         1.47864        -1.09351
C          8.84412         0.72370        -0.86317
C          9.96713         1.46473        -0.24043
C         11.01968         0.67973         0.37020
C         -9.94460         2.69866        -0.43223
C         -8.69274         3.41477        -0.32582
C         -7.46549         2.78099        -0.80881
C         -6.25726         3.43438        -0.72493
C         -5.05881         2.93499        -1.44097
C         -3.76900         3.74486        -1.41318
C         -2.50594         2.86867        -1.36696
C         -1.23129         3.59853        -1.42781
C          0.09468         2.86640        -1.36984
C          1.28543         3.66533        -0.96847
C          2.55045         2.92845        -0.86133
C          3.73223         3.62006        -0.75116
C          5.03675         2.93928        -0.67403
C          6.28675         3.71754        -0.95392
C          7.58349         2.97030        -0.94458
C          8.76486         3.64708        -0.34511
C          9.90106         2.83852        -0.03620
C         -8.65447         4.64244         0.28611
C         -7.35187         5.16948         0.81919
C         -6.16454         4.82814        -0.09871
C         -4.83996         5.17946         0.62442
C         -3.68540         4.72537        -0.26123
C         -2.43821         5.11776         0.04238
C         -1.27101         4.97806        -0.85220
C         -0.02602         5.77766        -0.58930
C          1.23642         5.01980        -0.74134
C          2.45779         5.68361        -0.14072
C          3.72743         5.13304        -0.80596
C          4.97551         5.71058        -0.13822
C          6.29091         5.16366        -0.58627
C          7.52611         5.79649        -0.06491
C          8.70015         5.00525         0.01409
C         -7.32184         6.65194         1.08091
C         -6.14343         7.35523         1.11899
C         -4.84047         6.72016         0.91585
C         -3.71930         7.53565         1.02043
C         -2.36042         7.04401         0.97906
C         -1.26630         7.73312         0.55345
C         -0.00758         7.06271         0.20836
C          1.15083         7.78574         0.31875
C          2.44087         7.22461        -0.22062
C          3.66803         7.82774         0.43266
C          4.94350         7.10717         0.39729
C          6.22231         7.81880         0.57829
C          7.43551         7.12471         0.42702
C         -6.18703         8.78286         1.41134
C         -5.08131         9.56801         1.41880
C         -3.77971         8.99667         1.13218
C         -2.65358         9.76451         0.95756
C         -1.35425         9.22578         0.39626
C         -0.07214         9.85413         0.90843
C          1.13973         9.17782         0.79498
C          2.38963         9.81908         1.05182
C          3.63822         9.14854         0.90103
C          4.90185         9.79094         1.21412
C          6.11860         9.17476         1.02412
C        -11.27721        -0.69316        -0.53087
C        -10.03994        -1.43575        -0.50424
C         -8.77226        -0.85182        -1.12408
C         -7.58000        -1.10202        -0.19516
C         -6.30144        -0.58605        -0.86258
C         -5.09749        -1.42141        -1.02834
C         -3.70757        -0.71927        -1.26502
C         -2.50100        -1.42744        -0.82135
C         -1.30209        -0.60007        -0.54973
C         -0.02476        -1.29273        -0.12765
C          1.26831        -0.62623        -0.38706
C          2.48958        -1.38297        -0.25324
C          3.76049        -0.62688        -0.30293
C          5.07577        -1.32928        -0.09081
C          6.35374        -0.72955        -0.59618
C          7.52285        -1.43463        -0.61567
C          8.84101        -0.77920        -0.86202
C         10.14426        -1.52508        -0.50501
C         11.03881        -0.67781         0.37768
C        -10.00214        -2.69309         0.04300
C         -8.75799        -3.38621         0.28093
C         -7.51826        -2.56775         0.26190
C         -6.23282        -3.33945         0.28069
C         -5.06835        -2.82300        -0.50331
C         -3.76648        -3.55690        -0.43752
C         -2.49495        -2.79884        -0.55501
C         -1.29928        -3.51441        -0.24031
C         -0.04583        -2.78155         0.01359
C          1.24955        -3.52489         0.02822
C          2.51890        -2.77208        -0.11644
C          3.73717        -3.53698        -0.08523
C          5.02109        -2.81190         0.31309
C          6.24238        -3.59883        -0.12684
C          7.52413        -2.91057        -0.43223
C          8.78558        -3.64150        -0.15212
C          9.95192        -2.94662        -0.03009
C         -8.70359        -4.75238         0.47440
C         -7.46192        -5.47601         0.62697
C         -6.26398        -4.79904         0.51387
C         -4.97808        -5.45005         0.84109
C         -3.71006        -4.79782         0.40265
C         -2.49113        -5.61292         0.23713
C         -1.29676        -4.92747        -0.07224
C         -0.04378        -5.67516        -0.03363
C          1.22502        -4.96130        -0.43610
C          2.50563        -5.69019        -0.11489
C          3.72823        -4.93604        -0.12324
C          5.01643        -5.72186        -0.27238
C          6.22854        -5.03802         0.40556
C          7.51749        -5.77779         0.09256
C          8.70872        -5.08631        -0.00760
C         -7.42885        -6.92629         0.77497
C         -6.26340        -7.62495         0.94910
C         -4.96030        -6.91562         1.26017
C         -3.73245        -7.67124         0.76817
C         -2.54842        -7.01828         0.42741
C         -1.32507        -7.81672         0.04016
C         -0.04836        -7.01987         0.19113
C          1.22198        -7.72181         0.48709
C          2.49998        -7.05317         0.15718
C          3.72497        -7.80864         0.30523
C          4.94643        -7.16675         0.14573
C          6.19642        -7.87762         0.21756
C          7.42229        -7.20543         0.13241
C         -6.22082        -9.06947         1.01117
C         -5.04403        -9.76081         1.03152
C         -3.75614        -9.11046         0.87367
C         -2.57294        -9.84281         0.82185
C         -1.29560        -9.21838         0.60820
C         -0.11240        -9.89587         0.75585
C          1.20042        -9.20496         0.75982
C          2.47327        -9.92847         0.60640
C          3.67254        -9.25473         0.49122
C          4.93565        -9.96468         0.47612
C          6.12843        -9.31432         0.36008
O         -0.88652         6.02824        -1.78197
O          5.99965         0.44959        -2.61284
H          6.86235         0.27938        -3.05228
O         -0.87280        -0.64071         0.87291
O          7.79141         2.34386        -2.25719
O          1.16019        -4.87167        -1.90232
H          1.18473        -5.78220        -2.26543
O         -7.79672        -0.29687         0.98316
H         -7.30595        -0.72291         1.72270
O          5.01179        -2.79303         1.74918
H          5.27472        -3.70474         2.08258
O          6.65578        -3.51047        -1.49525
O         -7.51490         1.99516        -2.98760
H         -8.31989         1.59296        -3.43746
O          6.11352        -5.05952         1.79474
O          9.04804        -0.05664        -2.11959
O         -6.20413         5.72910        -1.23108
H         -6.92849         5.44925        -1.82916
O         -2.18885         5.68671         1.30191
O          4.49748        -0.55246         0.99971
O          1.23716        -8.21962         1.88207
O         -7.19026         4.48363         2.09495
H         -7.97026         4.69494         2.64829
O          0.57705        -3.25885         1.28282
O          5.30955        -5.74646        -1.70167
H          4.53667        -6.12916        -2.16600
O          5.25161         2.15582         0.57045
O          2.51690         7.63665        -1.61322
H          2.34582         8.60082        -1.65214
O         -4.50130        -1.34689        -2.32919
O         -6.67009        -2.60179         1.47478
O         10.93052        -1.68108        -1.72373
H         10.63247        -0.96814        -2.33984
O         -4.84383        -6.95606         2.71145
H         -4.35092        -6.14300         2.97460
O          2.37705         5.31057         1.24891
H          3.25839         5.46734         1.67289
O         -4.17090        -4.62020         1.78467
O         -3.70417         4.48985        -2.64614
H         -3.99061         3.88976        -3.37047
O         -9.49612         0.59817        -2.85121
O          3.71331         5.52008        -2.18954
H          4.55568         5.20808        -2.59897
O         -1.43383        -8.03477        -1.41858
H         -1.68665        -7.18009        -1.82935
O         -4.72438         4.47588         1.86879
H         -3.85909         4.72542         2.26173
O         -5.14516         2.34837        -2.74508
O         -1.37831         9.55794        -1.04139
H         -0.95084         8.81876        -1.52613
O         -8.51377        -1.59324        -2.32552
H         -8.95102        -1.03886        -3.03480
O          6.25963         4.73873        -1.99940
O         -4.65411        -3.74109        -1.57876
O          4.92257         5.84955         1.30384
O         -0.46669         3.32760        -2.63941
H         11.86010        -1.19562         0.89593
H         11.79162         1.23226         0.92868
H         10.74895         3.32508         0.47171
H          9.59895         5.46255         0.45714
H          8.36633         7.63151         0.72654
H          7.04413         9.73160         1.23265
H          4.87520        10.82786         1.57958
H          2.38705        10.86372         1.39718
H         -0.07077        10.92105         1.18234
H         -2.74509        10.85938         1.03532
H         -5.15993        10.64919         1.60363
H         -7.17581         9.22641         1.60341
H         -8.26815         7.17504         1.29496
H         -9.59155         5.08590         0.66108
H        -10.83649         3.18932        -0.00950
H        -12.20243         1.23654        -0.50162
H        -12.21347        -1.23165        -0.31691
H        -10.93839        -3.18620         0.34951
H         -9.64195        -5.32684         0.47513
H         -8.37793        -7.47541         0.67291
H         -7.17559        -9.61677         1.02913
H         -5.05808       -10.85919         1.09091
H         -2.60288       -10.92526         1.02199
H         -0.13086       -10.95982         1.04279
H          2.46397       -11.02819         0.64525
H          4.91412       -11.05852         0.59107
H          7.06953        -9.88368         0.38268
H          8.35074        -7.79956         0.10713
H          9.65697        -5.64642        -0.05440
H         10.87769        -3.49206         0.21012
