         294
 CSIRO Nanostructure Databank - Neutral Graphene Oxide Data Set
C          1.21420         2.07669         0.63326
C          1.23442         3.21383        -0.13329
C          2.39951         1.43257         1.06773
C          2.53389         3.84416        -0.57356
C          1.26120         6.15413        -0.29495
C          1.23178         7.50980        -0.33410
C          2.47522         5.38909        -0.68191
C          2.41067         8.27038        -0.71606
C          1.42414        10.46756        -1.72519
C          1.75546        11.76675        -2.03407
C          2.40073         9.43205        -1.46270
C          3.01497        12.49769        -1.87642
C          2.13277        14.59791        -2.93037
C          2.28849        15.95736        -3.37164
C          3.10168        13.91390        -2.22405
C          3.34203        16.73693        -2.95160
C          3.43072        18.16191        -3.13807
C          3.66547         2.00371         0.78182
C          3.66289         3.46896         0.40944
C          4.83521         1.27851         0.82983
C          5.02475         4.00063         0.01225
C          3.77731         6.14439        -0.67395
C          3.73449         7.61905        -0.39182
C          5.07765         5.42131        -0.41705
C          5.03034         8.35804        -0.19304
C          4.30595        10.51541        -1.11595
C          4.12488        11.92924        -1.23976
C          5.05915         9.85836        -0.19278
C          5.14046        12.74565        -0.54101
C          4.45954        14.61476        -2.12808
C          4.26907        16.13040        -1.92677
C          5.39555        14.10945        -1.03594
C          5.64331        16.82280        -1.87081
C          4.41151        18.92171        -2.55527
C          5.55670        18.33586        -1.88601
C          6.11980         1.81048         0.26129
C          6.17708         3.31646         0.22707
C          7.28553         1.20937         0.96045
C          7.40164         4.06209         0.78815
C          6.37862         6.16571        -0.30402
C          6.40780         7.68789        -0.47786
C          7.68047         5.44873         0.14168
C          7.43132         8.39448         0.46592
C          6.13085        10.58411         0.61322
C          6.15996        12.07710         0.34134
C          7.43003         9.92374         0.09527
C          7.44624        12.79483         0.54358
C          6.40550        14.84567        -0.50465
C          6.41500        16.34919        -0.62476
C          7.27036        14.30777         0.65248
C          7.77711        16.99505        -0.51354
C          6.63364        19.05178        -1.45042
C          7.94504        18.35875        -1.14237
C          8.50341         1.86596         1.11499
C          8.68336         3.25956         0.90162
C          9.68411         1.01552         1.42535
C         10.07403         3.97411         0.81395
C          8.71382         6.25137         1.00678
C          8.79890         7.72013         0.60400
C         10.05049         5.52412         1.05891
C          9.96149         8.43196         0.88784
C          8.72644        10.65803         0.38646
C          8.63679        12.13208         0.59064
C          9.99962         9.92329         0.66797
C          9.97001        12.84243         0.48537
C          8.61093        15.04670         0.77329
C          8.70817        16.45476         0.30391
C          9.90976        14.30387         0.87165
C          9.78669        17.28610         0.95304
C          9.00602        19.19417        -0.48217
C          9.99749        18.63590         0.29906
C         10.71672         1.26285         0.52688
C         11.23359         3.31971         1.66807
C         11.89758         1.92801         1.13635
C         12.42357         4.22417         1.62511
C         11.15175         6.31201         1.43787
C         11.12841         7.75052         1.38520
C         12.34963         5.62292         2.13104
C         12.30287         8.61550         1.90136
C         11.18978        10.73015         1.08142
C         11.17174        12.10077         1.06813
C         12.46185         9.90708         1.02864
C         12.35372        12.90290         1.43341
C         11.21977        15.05620         0.68692
C         11.08819        16.49689         1.19747
C         12.35999        14.26951         1.34840
C         12.37702        17.25086         1.29315
C         11.19718        19.34621         0.57054
C         12.40059        18.70495         0.97444
C         13.13773         2.36017         0.32830
C         13.47302         3.65549         1.02085
C         14.36318         1.50372         0.08697
C         14.87813         4.12332         1.12138
C         13.69842         6.34409         1.96036
C         13.64651         7.83478         1.88794
C         14.93023         5.62490         1.39727
C         14.82744         8.59280         1.33413
C         13.75060        10.79782         1.27441
C         13.47743        12.08005         2.10355
C         14.89598         9.97197         1.94349
C         14.93018        12.94053         2.29143
C         13.55333        15.06921         1.84651
C         13.62402        16.48628         1.28752
C         14.87258        14.30437         1.57399
C         14.82998        17.31554         1.63886
C         13.61214        19.36326         0.86265
C         14.91969        18.62467         0.85929
C         15.48232         2.18779        -0.43742
C         15.56973         3.66131        -0.15089
C         16.41837         1.60428        -1.30651
C         16.61436         4.49456        -0.79738
C         16.00907         6.41505         0.73483
C         16.01382         7.90277         0.77790
C         16.90839         5.92619        -0.39892
C         17.36650         8.52601         0.66233
C         16.24885        10.66335         1.72816
C         16.24918        12.15965         1.84420
C         17.43451         9.95437         1.06262
C         17.38482        12.86571         1.15931
C         16.01112        15.21192         1.97249
C         16.12583        16.52903         1.57377
C         17.73805        14.14109         1.52753
C         17.38229        17.17732         1.32244
C         16.11131        19.41958         1.41852
C         17.38506        18.61317         1.21735
C         17.38763         2.39131        -2.07918
C         17.56004         3.84968        -1.76459
C         18.39790         1.77018        -2.97851
C         18.86046         4.59651        -2.06011
C         18.36529         6.31539        -0.04235
C         18.40607         7.85552         0.04977
C         19.44473         5.54831        -0.95425
C         19.60865         8.57798        -0.44699
C         18.51226        10.77429         0.40108
C         18.16098        12.21155         0.04451
C         19.57723        10.09138        -0.40480
C         19.39789        12.98046        -0.38550
C         18.60973        15.01438         0.79060
C         18.55213        16.43999         0.88102
C         19.54571        14.36031        -0.08990
C         19.67395        17.17154         0.35189
C         18.54296        19.28750         0.89685
C         19.71600        18.59264         0.47308
C         19.46543         2.46769        -3.40216
C         19.99690         3.63177        -2.58547
C         20.98885         4.54168        -3.27613
C         20.47414         6.43174        -1.69450
C         20.51097         7.92579        -1.46995
C         21.16706         5.80964        -2.86893
C         21.16263         8.82861        -2.43655
C         20.31204        10.89329        -1.40204
C         20.34381        12.32240        -1.21954
C         21.07539        10.20069        -2.37675
C         21.39480        13.09968        -1.78922
C         20.63634        15.10261        -0.62943
C         20.75732        16.50759        -0.30317
C         21.54052        14.43968        -1.49637
C         21.89257        17.25555        -0.68353
C         20.86949        19.30526         0.08110
C         21.95906        18.63185        -0.46471
O         18.63859        10.39036         1.77776
O         16.19116         5.90072         2.09579
O          4.98565        12.70635         0.93956
O          9.23418        14.73364         2.07505
O          3.64038         9.72409        -2.06211
O          9.66760        10.29481        -0.73531
O         20.44147         9.30906         0.50220
O          5.96521         5.55615        -1.58877
O         17.09707        14.67584         2.66197
O         16.69774        11.31868         2.94574
O         21.46125         7.00075        -0.78115
O         15.20650         4.48319        -1.30583
O          3.11406         5.82992        -1.93950
O         15.00846         8.54330        -0.11476
O         11.57118        16.80277         2.51999
O         16.79635         3.50441        -2.96078
O          4.28845         7.84378         0.96836
O          6.51206        14.64990         1.79009
O         13.99007         7.15690         3.12992
O         13.03013        11.71242         3.36494
O          8.54570        18.08561        -2.48761
H          8.53155        18.92783        -2.99145
O         12.01674         5.60003         3.53452
H         12.42272         6.41050         3.93317
O         17.27291        12.09480        -1.11633
H         16.87985        12.97809        -1.28692
O         16.21023        20.67483         0.74843
H         16.18424        20.48697        -0.21376
O          6.90656         4.21128         2.15591
H          7.57286         4.74250         2.66779
O         14.67291        17.68997         3.04171
H         14.40145        16.86967         3.52781
O          8.37311         6.24388         2.43276
H          7.78171         7.02028         2.61471
O         20.70091         2.89723        -1.56142
H         21.05541         3.53767        -0.89834
O         12.51804         9.40935        -0.32784
H         12.33086        10.15254        -0.93899
O          5.73860        16.83697         0.57569
H          5.95420        16.16413         1.30169
O          3.52948        16.30938        -0.70083
H          4.15551        16.55003         0.03139
O         20.22086         4.78829        -0.02078
H         20.74916         5.43649         0.49752
O          6.76811         7.90623        -1.84551
H          6.32196         7.20637        -2.37695
O         10.52941         1.22662        -0.78401
H         11.28407         1.67847        -1.24015
O          7.25944        10.14966        -1.32218
H          8.07447         9.83781        -1.77663
O          6.18872         1.37188        -1.14814
H          5.35780         1.66011        -1.58506
O         11.96808         9.02474         3.23197
H         12.36433         9.92474         3.41178
O         14.68421         9.78611         3.33541
H         14.28299        10.61995         3.71276
O         10.52470         3.85079        -0.55241
H          9.86317         4.32366        -1.11869
O          5.92650        10.47916         2.03255
H          5.33308        11.22409         2.28658
O         10.78646         3.14340         3.00766
H         11.08199         3.92122         3.53871
O         18.52466         5.48489        -3.15078
H         17.84244         5.02612        -3.69358
O          9.23334        17.60338         2.25447
H          9.09843        16.74915         2.72572
O         15.03789        13.16940         3.67448
H         14.26115        12.69143         4.08667
O          2.85964         3.30189        -1.86889
H          3.10868         4.06753        -2.44372
O         15.23934        18.33467        -0.53115
H         14.53829        17.74836        -0.88824
O         10.25634        12.87756        -0.96185
H         10.17196        11.93720        -1.27255
O          8.38446         5.23180        -1.10565
H          7.70317         4.98929        -1.77829
O          6.38574        16.44038        -3.04123
H          7.24650        16.92871        -3.03187
O         14.23247        11.23954        -0.01310
H         14.49208        10.42713        -0.51572
O         15.01211        14.07950         0.14565
H         14.52770        13.24756        -0.08042
O         13.47939        15.20542         3.29163
H         12.59153        15.59517         3.48990
O         12.71661         2.67271        -1.04462
H         13.42936         3.20110        -1.47151
O         18.65489         5.87066         1.29327
H         18.22293         6.46386         1.94373
O          3.36350         4.21523         1.62367
H          4.07245         4.03218         2.27740
O          6.90203         8.21536         1.80192
H          6.08139         8.74901         1.95258
O          5.08477        14.35039        -3.40667
H          5.11115        13.37993        -3.53637
O         15.47703         3.42694         2.23709
H         16.10970         4.05006         2.66403
O         11.52711        15.20694        -0.71915
H         11.28446        14.35749        -1.16611
O         16.59402         6.72260        -1.55901
H         15.77361         6.35813        -1.95932
H          0.24845         1.60293         0.86413
H          0.29245         3.59410        -0.55499
H          2.34169         0.42705         1.50891
H          0.36076         5.59815         0.00028
H          0.28882         8.04437        -0.14124
H          0.35483        10.20546        -1.69414
H          0.89527        12.41139        -2.27539
H          1.18086        14.10533        -3.18132
H          1.49985        16.38832        -4.00769
H          2.64287        18.66108        -3.72446
H          4.80839         0.22264         1.14236
H          4.38984        20.01654        -2.67345
H          7.25102         0.12755         1.15980
H          6.63046        20.15277        -1.50880
H          9.99224         1.07989         2.48592
H          9.16286        20.20984        -0.88597
H         12.21820         1.38656         2.05092
H         11.26372        20.39834         0.24884
H         14.23377         0.43826        -0.16278
H         13.62362        20.42598         0.57246
H         16.36102         0.52239        -1.50027
H         15.94480        19.62197         2.50570
H         18.12073         0.81891        -3.45944
H         18.53558        20.38762         0.87754
H         20.13852         2.03421        -4.15821
H         21.60718         4.13742        -4.09272
H         21.94826         6.41803        -3.34908
H         21.80438         8.38145        -3.20744
H         21.62398        10.78260        -3.13174
H         22.13224        12.61466        -2.44302
H         22.37536        14.99249        -1.94758
H         22.74698        16.75328        -1.15671
H         20.89528        20.39736         0.20368
H         22.85976        19.18779        -0.75867
