         314
 CSIRO Nanostructure Databank - Neutral Graphene Oxide Data Set
C         30.29609        57.15126        -0.26549
C         30.28687        58.54532        -0.40966
C         29.10593        59.30225        -0.57773
C         30.33722        61.31443        -1.26016
C         29.15286        60.63916        -1.02143
C         32.76220        52.83810         0.24845
C         32.76796        54.20133        -0.38313
C         31.52007        55.01418        -0.15199
C         32.78081        57.10312        -0.44507
C         31.51323        56.39197        -0.26012
C         32.80359        58.48752        -0.54836
C         31.57467        59.26628        -0.39064
C         32.90234        61.36807        -1.23526
C         31.61528        60.77014        -0.83188
C         35.01752        48.58869         1.16740
C         35.13692        49.99943         0.82036
C         33.96611        50.76093         0.79140
C         35.22066        52.87070         0.42441
C         33.94817        52.16285         0.48527
C         35.25101        54.27978         0.22454
C         34.03397        54.98035        -0.10128
C         35.23774        57.14647        -0.11159
C         34.01021        56.34882        -0.32186
C         35.31241        58.44828        -0.83463
C         34.03193        59.19430        -0.97536
C         35.37689        61.29293        -1.30483
C         34.09680        60.66931        -1.16441
C         37.57344        44.25843         1.06710
C         37.50388        45.68370         1.10824
C         36.21047        46.28166         1.21180
C         37.81509        48.65539         0.60545
C         35.94363        47.61670         0.80233
C         37.66891        50.01408         0.83250
C         36.41311        50.70828         0.67036
C         37.70045        52.87210         0.46914
C         36.41816        52.12608         0.58202
C         37.70061        54.34472         0.57141
C         36.49583        55.00195         0.41192
C         37.78145        57.23392         0.31194
C         36.47872        56.48093         0.37473
C         37.86791        58.48036        -0.50791
C         36.62168        59.15382        -0.98549
C         37.86414        61.27383        -1.16870
C         36.62053        60.62210        -1.17948
C         40.03542        40.06861         0.28346
C         40.04828        41.43294         0.62089
C         38.82457        42.14346         0.77315
C         40.00941        44.18089         1.52857
C         38.76762        43.51243         1.07519
C         39.96509        45.67678         1.63429
C         38.76184        46.42946         1.18786
C         40.15545        48.51040         1.28898
C         38.89447        47.82656         1.08386
C         40.18831        49.98675         1.33038
C         38.89778        50.74704         1.20542
C         40.26408        52.84211         0.92810
C         38.98732        52.14767         0.73452
C         40.28365        54.30042         1.03676
C         38.97255        55.05953         0.92020
C         40.33336        57.18490         0.24692
C         39.06236        56.54101         0.65195
C         40.33408        58.54220        -0.20125
C         39.11959        59.25115        -0.44812
C         40.35216        61.28686        -0.96524
C         39.11088        60.60674        -0.87901
C         42.57418        35.90060        -0.55530
C         42.54143        37.31482        -0.45342
C         41.28979        38.00991        -0.31422
C         42.44073        40.19829        -0.24706
C         41.22648        39.37796        -0.05914
C         42.50621        41.53447         0.37192
C         41.33248        42.11105         0.79561
C         42.61068        44.24562         1.38068
C         41.34366        43.45599         1.41670
C         42.56127        45.60322         1.46494
C         41.31207        46.38131         1.64184
C         42.61355        48.50034         1.17796
C         41.34846        47.82275         1.36149
C         42.62124        49.92090         0.85982
C         41.44659        50.67697         0.98979
C         42.68307        52.79397         0.52429
C         41.45318        52.11175         0.86880
C         42.82258        54.22327         0.54142
C         41.61559        55.00241         0.90096
C         42.84442        57.07922         0.01313
C         41.60292        56.51536         0.53825
C         42.80010        58.42889        -0.56105
C         41.56252        59.21313        -0.48146
C         42.83797        61.30606        -0.87323
C         41.58630        60.60454        -0.79704
C         45.03310        33.16640        -1.28144
C         43.82544        33.82018        -1.05110
C         45.04012        35.90031        -0.61569
C         43.80630        35.20432        -0.72779
C         45.05646        37.31283        -0.09194
C         43.76410        38.02520        -0.38180
C         45.04064        40.21148        -0.31464
C         43.77876        39.46701        -0.45399
C         45.07291        41.57919         0.05620
C         43.84205        42.12068         0.68922
C         45.21923        44.24537         1.17871
C         43.91599        43.51577         1.26865
C         45.12307        45.64095         1.67622
C         43.81083        46.37419         1.65467
C         45.07187        48.43961         0.85457
C         43.80277        47.81636         1.29803
C         45.11819        49.83950         0.30162
C         43.81067        50.56161         0.40139
C         45.57278        52.90580         0.38684
C         43.70887        51.91847         0.08759
C         45.34631        54.31537         0.62396
C         44.06845        54.93851         0.40708
C         45.28069        57.11136        -0.08781
C         44.04979        56.38458         0.14615
C         45.34823        58.49226        -0.32980
C         44.12253        59.19660        -0.72285
C         45.30415        61.36485        -0.56500
C         44.08563        60.67375        -0.71671
C         46.24083        33.86593        -1.22881
C         47.48747        35.99500        -0.93903
C         46.26113        35.24576        -0.90568
C         47.48107        37.39150        -0.87952
C         46.24794        38.09614        -0.59713
C         47.35209        40.25621        -1.23868
C         46.22140        39.48391        -0.61787
C         47.37699        41.74942        -0.83231
C         46.26901        42.33850         0.00148
C         47.70116        44.39925         0.47806
C         46.36829        43.65354         0.61721
C         48.20671        45.46799         1.37664
C         46.29450        46.53043         1.77276
C         47.48663        48.67620         1.51705
C         46.29802        47.84564         1.42791
C         47.66651        49.84432         0.85528
C         46.50659        50.58309         0.16045
C         47.76120        52.43755         1.38043
C         46.53998        51.98712         0.76888
C         47.73917        54.58235         1.16776
C         46.54321        55.08958         0.66430
C         47.86330        57.12957        -0.02690
C         46.54194        56.38144        -0.02373
C         47.79324        58.59148         0.04731
C         46.56606        59.23957        -0.18977
C         47.72704        61.41860        -0.09939
C         46.54881        60.70249        -0.29274
C         48.68416        38.14946        -1.04522
C         49.88402        40.26686        -1.27002
C         48.68609        39.54380        -1.11343
C         49.94810        41.67812        -1.21156
C         48.69276        42.45574        -0.96944
C         50.21971        44.36752        -0.28706
C         48.84810        43.82020        -0.37211
C         50.40547        45.63739         0.28211
C         49.37382        46.17650         1.14868
C         50.49208        48.36858         1.04581
C         49.51291        47.56783         1.56027
C         50.35234        49.82002         0.76979
C         49.01580        50.51234         0.69261
C         50.23459        52.76608         0.90995
C         49.02582        51.96494         1.02466
C         50.22425        54.24677         0.91445
C         49.03747        55.05421         0.84912
C         50.23005        57.18081         0.58277
C         49.06918        56.44167         0.46098
C         50.20536        58.60198         0.41716
C         49.00253        59.30000         0.29033
C         50.28480        61.47378         0.22514
C         48.95846        60.79349         0.51346
C         51.17477        42.33916        -1.28159
C         52.56508        44.39731        -1.02062
C         51.33489        43.71363        -0.89672
C         52.72285        45.73655        -0.57018
C         51.63066        46.32331         0.12481
C         52.92913        48.53058         0.32226
C         51.73737        47.68833         0.64533
C         52.77459        50.00310         0.32457
C         51.59063        50.66022         0.65347
C         52.60291        52.91823         0.02881
C         51.44667        52.10320         0.59382
C         52.68188        54.33845         0.55174
C         51.45632        54.96732         0.84596
C         52.73100        57.19345         1.01793
C         51.44055        56.44641         1.00402
C         52.76151        58.59973         0.50434
C         51.48084        59.32789         0.25349
C         52.80164        61.48349        -0.05898
C         51.46056        60.80813         0.20158
C         53.90694        46.51913        -0.79812
C         55.18710        48.63837        -0.68450
C         54.02467        47.88099        -0.45170
C         55.23091        50.04464        -0.40885
C         53.88790        50.74903        -0.35430
C         55.11323        52.90637        -0.25437
C         53.91988        52.18970         0.06800
C         55.12499        54.45183        -0.03427
C         53.89879        55.06854         0.48070
C         55.19294        57.16809         0.82229
C         53.98615        56.44399         0.82306
C         55.16976        58.60966         0.98682
C         54.01406        59.34159         0.73505
C         55.16132        61.48351         0.78924
C         54.01965        60.78162         0.55161
C         56.40179        50.76663        -0.43368
C         57.59683        53.04151        -0.50715
C         56.44199        52.21579        -0.01761
C         57.60694        54.43029        -0.29161
C         56.40455        55.11836         0.13229
C         57.64657        57.20781         0.40705
C         56.43978        56.48191         0.52910
C         57.71443        58.61209         0.84086
C         56.43293        59.32863         1.24739
C         57.65327        61.52192         0.91325
C         56.39400        60.85384         1.39676
C         58.78876        55.20512        -0.45655
C         59.98871        57.36032        -0.33939
C         58.81971        56.58182        -0.13513
C         60.00367        58.76640        -0.12461
C         58.86928        59.41822         0.42834
C         59.98041        61.58831         0.12880
C         58.81668        60.84881         0.51717
C         61.13877        59.54839        -0.48433
C         61.11541        60.93715        -0.34249
O         47.71166        42.51848        -2.05534
O         44.74617        52.45709        -0.65968
O         47.91799        44.80565        -0.92010
O         47.65316        53.59279         2.16012
O         43.99236        42.33570         2.13910
O         38.34573        57.38077         1.64600
O         34.62048        58.43758        -2.11715
O         39.46823        50.53332         2.52326
O         57.28477        58.74597         2.27665
O         52.26072        58.73468        -0.87445
O         41.78819        56.00961         1.92161
O         36.86162        48.04028        -0.19450
O         40.61227        43.52773         2.68411
O         35.58361        57.17599         1.31760
O         47.33699        56.49386        -1.24875
O         39.50824        54.70697         2.23212
O         47.39220        45.93060         2.40706
O         38.52741        52.34505        -0.66330
O         37.44516        58.35260        -1.91665
O         42.99666        40.06427        -1.57200
O         48.50329        48.15380         2.32620
O         40.56085        46.12795         2.88336
O         54.99765        53.83300        -1.38181
O         31.64540        60.33471         0.58258
O         49.65057        50.07308        -0.54667
O         45.10405        48.68720        -0.61335
O         52.80999        47.90076         1.65833
O         43.46471        58.57605        -1.86767
O         52.01871        56.97378         2.27436
O         44.39546        45.92489         2.94463
O         46.77105        50.69398        -1.23939
H         46.55138        49.82923        -1.65001
O         52.27867        53.10212        -1.41555
H         53.07526        53.54383        -1.80586
O         53.49313        50.76482        -1.77701
H         52.74745        51.41477        -1.87171
O         32.77449        53.92569        -1.84398
H         33.60216        53.43676        -2.04198
O         48.76902        60.96803         1.97297
H         47.89379        60.59016         2.20433
O         47.04111        40.19025        -2.66102
H         47.35320        41.04180        -3.05387
O         52.76639        62.85225         0.33405
H         52.63081        62.89360         1.30284
O         45.17774        37.22381         1.38416
H         45.95220        36.65371         1.57716
O         56.54790        52.19924         1.46099
H         57.39253        51.75906         1.69499
O         56.32337        61.13234         2.83450
H         56.89624        60.45729         3.26716
H         29.33823        56.61241        -0.20418
H         28.13257        58.79688        -0.50265
H         30.32708        62.26086        -1.82007
H         28.20493        61.12852        -1.28864
H         31.80875        52.28943         0.29458
H         30.56710        54.47434        -0.03784
H         32.91016        62.43460        -1.50870
H         34.14158        48.29803         1.76718
H         32.99843        50.25194         0.91654
H         35.39361        62.38571        -1.43817
H         36.63046        43.71093         0.91465
H         35.39052        45.65166         1.58997
H         37.89685        62.35590        -1.36798
H         39.07901        39.52545         0.27369
H         37.88836        41.61196         0.54458
H         40.36496        62.35229        -1.23898
H         41.62936        35.33803        -0.58446
H         40.36638        37.41304        -0.27652
H         42.80823        62.40158        -0.97437
H         45.03501        32.09620        -1.53135
H         42.87534        33.27283        -1.13244
H         45.29790        62.46505        -0.60036
H         47.18585        33.35151        -1.45524
H         48.42887        35.46336        -1.14112
H         47.69733        62.51691        -0.17640
H         49.64072        37.60725        -1.10720
H         50.82993        39.70933        -1.35531
H         50.28840        62.57334         0.15518
H         52.07241        41.75930        -1.54428
H         53.40671        43.89169        -1.51626
H         52.95649        61.47483        -1.17422
H         54.74397        46.04516        -1.33385
H         56.09502        48.13675        -1.05503
H         55.16992        62.57213         0.62612
H         57.35968        50.23930        -0.57715
H         58.52330        52.54006        -0.82604
H         57.68080        62.62071         0.97409
H         59.70303        54.71996        -0.82807
H         60.88743        56.87526        -0.74759
H         59.96271        62.68482         0.20358
H         62.02871        59.04802        -0.89133
H         61.99898        61.52538        -0.62781
