         349
 CSIRO Nanostructure Databank - Neutral Graphene Oxide Data Set
C          2.20609         2.37145         3.08767
C          2.08785         3.75420         2.76959
C          3.13013         1.55893         2.47176
C          2.83696         4.33334         1.75824
C          1.59660         6.49882         1.78729
C          1.48398         7.83376         1.45973
C          2.72259         5.73764         1.38645
C          2.48892         8.50063         0.70246
C          1.15671        10.63986         0.56711
C          1.12178        12.00665         0.56201
C          2.36396         9.88588         0.38223
C          2.40245        12.80089         0.59923
C          1.14986        15.04093         0.51862
C          1.16268        16.42634         0.52826
C          2.33398        14.29701         0.29516
C          2.38161        17.13897         0.41183
C          2.44827        18.55761         0.57103
C          4.01990         2.08983         1.48357
C          3.78728         3.47051         1.03596
C          5.11520         1.38219         1.00565
C          4.96174         4.15638         0.29106
C          3.73247         6.39122         0.61729
C          3.64366         7.75313         0.29927
C          4.98972         5.64924         0.32423
C          4.59815         8.40374        -0.70032
C          3.50064        10.59339        -0.22366
C          3.47029        12.09312        -0.21658
C          4.78175         9.88754        -0.44898
C          4.79036        12.79372        -0.39570
C          3.53061        14.99064         0.05091
C          3.58400        16.40974         0.17525
C          4.79149        14.27665        -0.26452
C          4.83823        17.10147         0.14570
C          3.65883        19.20873         0.57251
C          4.88429        18.49705         0.38547
C          6.21657         2.02309         0.34617
C          6.19313         3.40651         0.10536
C          7.44414         1.29289         0.16955
C          7.48851         4.13974        -0.16712
C          6.12207         6.31657        -0.37427
C          5.94751         7.70364        -0.91097
C          7.28678         5.49620        -0.84985
C          7.22132         8.47325        -1.16102
C          5.99444        10.55954        -0.51557
C          6.02654        12.00190        -0.01577
C          7.24303         9.90866        -0.80564
C          7.30321        12.74331        -0.31120
C          6.07041        14.99122        -0.09592
C          6.07286        16.36271        -0.00949
C          7.32987        14.20990        -0.11273
C          7.31781        17.14813        -0.22940
C          6.14279        19.17002         0.53787
C          7.35438        18.53866         0.29520
C          8.60637         1.89350        -0.31196
C          8.49476         3.26742        -0.95752
C          9.84446         1.23172        -0.27007
C          9.83646         4.02088        -1.03450
C          8.52650         6.23550        -1.25545
C          8.53956         7.74111        -1.28487
C          9.86186         5.52516        -1.17695
C          9.82194         8.47242        -1.03303
C          8.48780        10.57682        -0.63474
C          8.47599        12.02451        -0.44235
C          9.74494         9.90960        -0.68601
C          9.74127        12.71945        -0.53438
C          8.63581        14.95594        -0.42523
C          8.59430        16.46713        -0.60388
C          9.76536        14.09807        -0.81205
C          9.85471        17.26714        -0.41454
C          8.60780        19.17083         0.54529
C          9.83470        18.57430         0.24286
C         11.07177         1.94852        -0.37804
C         11.04352         3.34423        -0.54843
C         12.33567         1.26413        -0.26296
C         12.27162         4.12562        -0.19592
C         11.08355         6.29953        -0.77767
C         11.06963         7.72319        -0.73259
C         12.27178         5.60277        -0.52370
C         12.25546         8.45144        -0.45361
C         10.97573        10.60201        -0.47488
C         10.96559        12.00575        -0.43307
C         12.24167         9.88769        -0.38555
C         12.18936        12.79818        -0.05249
C         11.03122        14.65331        -1.19800
C         11.00998        16.88999        -1.01333
C         12.21811        14.14166        -0.75585
C         12.35955        17.47738        -0.81348
C         11.07952        19.26446         0.41602
C         12.30600        18.75727        -0.01379
C         13.53495         1.93108        -0.48147
C         13.50428         3.39814        -0.68624
C         14.79734         1.28035        -0.52609
C         14.79684         4.16858        -0.63465
C         13.51002         6.30373        -0.31295
C         13.50074         7.75290        -0.27209
C         14.72311         5.58770        -0.23520
C         14.70297         8.48321        -0.16650
C         13.46346        10.60552        -0.27792
C         13.48960        12.04484        -0.23255
C         14.71723         9.90925        -0.25031
C         14.68283        12.74777        -0.21467
C         13.39720        14.98714        -0.40639
C         13.39295        16.48641        -0.20874
C         14.69362        14.22570        -0.42685
C         14.70838        17.21141        -0.01747
C         13.55825        19.41273         0.10366
C         14.75033        18.70125        -0.13301
C         16.00522         1.98277        -0.56223
C         16.04740         3.39821        -0.49904
C         17.28629         1.18133        -0.47860
C         17.28013         4.08731        -0.32093
C         15.94989         6.24613         0.19433
C         15.95836         7.79264         0.16102
C         17.25846         5.51245         0.09977
C         17.23561         8.49828        -0.07191
C         15.95307        10.62929        -0.20811
C         15.96012        12.06424        -0.18300
C         17.20657         9.92879        -0.19462
C         17.18068        12.77818        -0.06904
C         15.97706        14.96120        -0.28610
C         15.97645        16.44765        -0.09717
C         17.11234        14.21802         0.40728
C         17.18868        17.12781        -0.67818
C         16.01143        19.32361        -0.22695
C         17.22141        18.61900        -0.41626
C         18.53792         2.00307        -0.67910
C         18.50201         3.42395        -0.48775
C         19.72187         1.37000        -0.99796
C         19.83280         4.14869        -0.43056
C         18.52169         6.32678        -0.04950
C         18.44599         7.80322        -0.15390
C         19.73633         5.64861        -0.51561
C         19.67207         8.51601        -0.32285
C         18.42768        10.65351        -0.24795
C         18.42772        12.09640        -0.13108
C         19.66581         9.94774        -0.31022
C         19.65410        12.80113        -0.06160
C         18.44202        15.09318         0.48953
C         18.46665        16.38866        -0.34443
C         19.76537        14.23299         0.46028
C         19.63234        17.08503        -0.52074
C         18.45275        19.26697        -0.53269
C         19.66914        18.54096        -0.67306
C         20.95109         2.08578        -1.24518
C         20.82406         3.58327        -1.48979
C         22.13686         1.40805        -1.24623
C         22.17537         4.40310        -1.56364
C         20.93049         6.37526        -0.58816
C         20.90380         7.81107        -0.41650
C         22.16981         5.69963        -0.78582
C         22.12702         8.51669        -0.36586
C         20.89645        10.66209        -0.34218
C         20.88647        12.10447        -0.21831
C         22.12317         9.94416        -0.33845
C         22.11363        12.81268        -0.25543
C         20.94531        14.93783        -0.20593
C         20.89668        16.33787        -0.62229
C         22.12777        14.23100        -0.35739
C         22.19450        17.11192        -0.78581
C         20.89646        19.22701        -0.68157
C         22.15666        18.57728        -0.62089
C         23.44038         2.08516        -1.30164
C         23.45137         3.58223        -1.33662
C         24.65683         1.40538        -0.80556
C         24.62287         4.20583        -0.57692
C         23.39672         6.39033        -0.57822
C         23.36314         7.80371        -0.33947
C         24.64785         5.71191        -0.57905
C         24.57467         8.49597        -0.07833
C         23.36772        10.62856        -0.18845
C         23.39673        12.08588        -0.55800
C         24.53094         9.92774         0.08796
C         24.59528        12.85386        -0.06653
C         23.42725        14.91129        -0.79501
C         23.44080        16.39318        -0.51811
C         24.63294        14.21255        -0.20806
C         24.59569        17.08127        -0.22565
C         23.35837        19.24004        -0.36715
C         24.59129        18.54015        -0.19367
C         25.85472         2.06003        -0.67215
C         25.96024         3.54775        -0.99321
C         27.02345         1.37366        -0.20386
C         27.15357         4.24711        -0.36003
C         25.86424         6.39663        -0.31753
C         25.80729         7.80352        -0.08166
C         27.12838         5.67463        -0.27603
C         27.03959         8.58116         0.17474
C         25.69160        10.65195         0.66232
C         25.72873        12.15030         0.55006
C         26.94352         9.84971         1.00346
C         26.99757        12.86990         0.69379
C         25.82942        14.96080         0.11548
C         25.83621        16.36526         0.02784
C         27.03459        14.25264         0.47609
C         27.05099        17.08953         0.20615
C         25.80133        19.22062        -0.02691
C         27.04297        18.54073         0.12221
C         28.18182         2.05524         0.12546
C         28.25774         3.49287         0.02335
C         29.30235         1.33594         0.73407
C         29.61461         4.08893         0.36466
C         28.38048         6.39916        -0.06929
C         28.33807         7.86393         0.24515
C         29.65861         5.61065         0.36652
C         29.43180         8.50405         1.05145
C         28.23565        10.66068         0.96660
C         28.18191        12.12033         1.12565
C         29.45138         9.99990         1.03732
C         29.55698        12.88732         1.07427
C         28.27556        14.98634         0.54411
C         28.25736        16.38779         0.39649
C         29.53636        14.29352         0.65452
C         29.56650        17.11294         0.58623
C         28.25844        19.24290         0.13984
C         29.51145        18.58308         0.22076
C         30.23292         1.97386         1.47099
C         30.12480         3.46910         1.66792
C         31.38445         4.13874         2.15181
C         30.69754         6.26694         1.14172
C         30.69125         7.74435         1.32560
C         31.56093         5.48271         1.96104
C         31.93232         8.53492         1.39808
C         30.72057        10.67628         1.08315
C         30.77588        12.08645         0.90347
C         31.92445         9.88622         1.23627
C         31.94822        12.78687         0.52495
C         30.74462        14.92101         0.31192
C         30.70314        16.37920        -0.13711
C         31.93222        14.15161         0.26299
C         31.99088        17.15802         0.02734
C         30.71934        19.24546         0.08576
C         31.95850        18.51453         0.09521
O         28.83845        12.63160         2.32008
O          3.79332         3.64894        -0.41419
O          6.10665         6.25123         1.10981
O          9.31932         8.23369        -2.41930
O          8.24814        14.62834         0.96316
O         15.56302        14.53342        -1.60066
O         13.07313        15.64275         0.92169
O         20.29085         3.80442        -2.84488
O          7.62450         5.62978        -2.24447
O         15.85207         7.03578         1.41407
O         29.65823         7.99578         2.40051
O         18.10498         5.74824         1.27506
O         25.29267        11.45786         1.82919
O          6.37017         7.98877        -2.27111
O          3.03506        11.41867        -1.39915
O         14.07914         3.87980        -1.91785
O         27.98599         8.66938        -0.93707
O         29.47705         6.10901        -1.00021
O         11.01563        15.83946        -1.94211
O          4.82249        13.57217        -1.60892
O          7.74699        16.99719        -1.65972
O         15.48465        16.84255         1.20414
O         23.75274         2.85057        -2.56750
O         21.49089        16.58248        -1.97696
O         10.08129         4.66571        -2.34545
O         20.43375         3.84589         0.86215
H         19.88259         4.29631         1.54149
O         17.01644        16.98317        -2.12499
H         17.79717        17.38496        -2.56185
O         30.38208        16.36832        -1.55580
H         31.13322        15.96267        -2.03610
O         17.34696         0.52984         0.80958
H         17.38256         1.22450         1.49920
O         18.40906        15.72277         1.80656
H         17.46302        15.80494         2.07861
O         26.78079         9.39130         2.36733
H         26.43954        10.15641         2.88521
O          3.86914         8.29110        -1.95454
H          4.51625         8.46370        -2.67747
O         23.49826        12.04409        -2.02624
H         23.50427        12.98618        -2.34732
O         30.51894         3.66934        -0.68646
H         30.29997         4.21029        -1.47786
O         20.16274        14.00714         1.84431
H         19.80014        14.76156         2.36946
O         12.90166        17.80217        -2.12235
H         12.54166        17.14737        -2.76054
O         23.50372        14.76878        -2.25571
H         22.76161        15.32029        -2.61315
O         18.98262         3.17476        -2.97891
H         18.71286         3.49653        -3.87377
O          8.13144         4.43126         1.10933
H          7.51079         5.01705         1.60937
O         26.20103         3.72233        -2.40398
H         25.46470         3.27308        -2.88679
O          5.95757        11.91208         1.44570
H          6.84243        11.65684         1.78216
O         29.88551        17.04983         2.00520
H         29.16483        17.49347         2.49858
O         29.10405         3.72340         2.68235
H         29.44012         3.39094         3.54053
O         24.37384         3.83308         0.81380
H         25.06568         4.24740         1.37196
O          2.88623        12.74194         1.98283
H          2.23913        13.21093         2.55030
O          8.01176         3.02018        -2.27932
H          8.31873         3.76576        -2.84975
O         12.05737        13.03481         1.39029
H         12.48681        13.89384         1.60445
O         12.38066         4.06258         1.27567
H         11.53904         4.38917         1.65887
O         16.62840        14.08338         1.77869
H         17.24850        13.49750         2.26340
O         22.30566         4.90668        -2.91979
H         22.69089         4.17834        -3.46041
H          1.55722         1.95886         3.87259
H          1.37598         4.35937         3.34768
H          3.22964         0.50456         2.76652
H          0.79071         6.01865         2.35873
H          0.59892         8.39299         1.79238
H          0.21160        10.09229         0.70466
H          0.15682        12.51674         0.69533
H          0.19922        14.51614         0.68874
H          0.22787        16.98179         0.69131
H          1.51632        19.11893         0.73120
H          5.24029         0.33145         1.30846
H          3.69956        20.29570         0.73455
H          7.48943         0.25601         0.53747
H          6.13716        20.21451         0.88494
H          9.87761         0.17047         0.02169
H          8.60058        20.19061         0.95927
H         12.33465         0.17578        -0.10425
H         11.05959        20.24277         0.92015
H         14.82863         0.18260        -0.46129
H         13.60218        20.48167         0.36237
H         17.25835         0.35798        -1.23803
H         16.05471        20.42331        -0.18529
H         19.74622         0.27064        -1.05216
H         18.49831        20.36370        -0.45280
H         22.13269         0.32679        -1.03681
H         20.87568        20.32647        -0.63162
H         24.58993         0.33198        -0.56948
H         23.35935        20.33710        -0.28025
H         26.96382         0.28752        -0.03422
H         25.80451        20.32085        -0.05272
H         29.32518         0.24021         0.62940
H         28.24362        20.33556         0.00195
H         31.04140         1.41632         1.96836
H         32.05018         3.58962         2.83513
H         32.39563         5.99548         2.46328
H         32.88925         8.00294         1.50236
H         32.88627        10.41808         1.26939
H         32.89457        12.24082         0.40793
H         32.87483        14.63350        -0.03321
H         32.95933        16.63989        -0.03722
H         30.74100        20.33538        -0.06181
H         32.89957        19.08446         0.11585
