         630
 CSIRO Nanostructure Databank - Neutral Graphene Oxide Data Set
C         24.37376        27.20222         3.14711
C         24.18587        28.53963         3.00991
C         23.76321        31.47043         2.34500
C         23.67402        32.89539         2.26705
C         23.68749        35.82801         2.37697
C         23.60512        37.26039         2.30775
C         23.14988        40.14686         1.51702
C         23.10715        41.51422         1.34747
C         23.02503        44.42126         1.00410
C         22.99729        45.78986         0.90472
C         26.50604        24.40078         1.82160
C         25.53787        25.07727         2.53220
C         26.30965        27.19409         1.60920
C         25.39188        26.48643         2.40752
C         26.08884        28.62454         1.32448
C         24.93068        29.31358         2.00128
C         26.16786        31.56770         1.69175
C         24.90370        30.80070         2.01088
C         25.90501        32.99889         1.26236
C         24.69259        33.65618         1.71885
C         25.44471        35.82164         0.64651
C         24.55154        35.10698         1.59157
C         25.41138        37.35160         0.55795
C         24.43277        37.99373         1.51111
C         25.56794        40.15482         1.18220
C         24.38161        39.45184         1.41892
C         25.54759        41.57817         1.07767
C         24.29097        42.26478         1.12090
C         25.47252        44.41937         0.84272
C         24.25791        43.69873         0.98650
C         25.45143        45.84749         0.75976
C         24.20595        46.53576         0.79329
C         25.36538        48.66457         0.62364
C         24.18925        47.95190         0.71752
C         28.30946        22.98848        -0.09587
C         28.38498        24.41299         0.16227
C         27.43613        25.09431         0.99198
C         28.31132        27.27979         0.16901
C         27.36831        26.52216         0.95043
C         28.25739        28.73289         0.14425
C         27.20673        29.42032         0.76048
C         28.17227        31.59774         0.17876
C         27.16509        30.84732         0.80361
C         28.08660        33.03751         0.10542
C         26.89772        33.69483         0.60202
C         27.90535        35.91806        -0.09163
C         26.70066        35.11672         0.22794
C         27.91161        37.35338         0.17838
C         26.78480        37.99172         0.65278
C         28.05403        40.16521         0.75013
C         26.87110        39.38005         1.24761
C         28.08236        41.62408         1.11812
C         26.75769        42.32668         0.94587
C         27.95429        44.48198         0.66364
C         26.73034        43.72263         0.82238
C         27.92423        45.89311         0.59078
C         26.66668        46.59314         0.65684
C         27.86516        48.76134         0.50973
C         26.62669        48.00902         0.59413
C         27.87336        50.17070         0.47712
C         30.27493        23.01100        -1.68675
C         29.11506        22.35716        -0.98034
C         30.25306        24.52103        -1.46833
C         29.31966        25.16935        -0.58737
C         30.16908        27.36595        -1.50356
C         29.29486        26.59723        -0.54652
C         30.31948        28.81557        -1.19161
C         29.32209        29.47754        -0.51033
C         30.31824        31.67112        -1.01860
C         29.28208        30.93324        -0.46467
C         30.31140        33.11816        -0.94037
C         29.10652        33.79436        -0.49479
C         30.24962        36.03583        -0.82888
C         29.05045        35.24435        -0.47319
C         30.32303        37.44739        -0.39482
C         29.17064        38.08619         0.04630
C         30.41351        40.25277         0.04677
C         29.18857        39.51701         0.29845
C         30.41906        41.68170         0.17068
C         29.23997        42.37546         0.52418
C         30.39512        44.52764         0.22487
C         29.19782        43.78860         0.48450
C         30.37268        45.95156         0.26057
C         29.14053        46.63711         0.44149
C         30.33580        48.80673         0.38959
C         29.11413        48.07144         0.44637
C         30.31087        50.23353         0.38857
C         29.06083        50.88515         0.41286
C         32.77881        20.43550        -0.23416
C         31.60414        21.11691        -0.58746
C         32.89894        22.95131        -1.45256
C         31.61664        22.35685        -1.23683
C         33.08923        24.23237        -2.08002
C         31.22054        25.31240        -2.08852
C         32.74653        27.34189        -1.89720
C         31.47987        26.66663        -1.78337
C         32.76489        28.73537        -1.80735
C         31.42155        29.48532        -1.97482
C         32.74980        31.73626        -1.78162
C         31.44648        30.99685        -1.72353
C         32.76800        33.07921        -1.10853
C         31.49448        33.82694        -1.11974
C         32.81916        36.01473        -0.88596
C         31.54119        35.29667        -1.09988
C         32.79019        37.45184        -0.75920
C         31.57668        38.14608        -0.51831
C         32.82367        40.29869        -0.46252
C         31.59624        39.57063        -0.31466
C         32.83474        41.71934        -0.35851
C         31.62195        42.41621        -0.09075
C         32.83702        44.56764        -0.19125
C         31.61885        43.83717        -0.01652
C         32.82921        45.99391        -0.09928
C         31.59782        46.68527         0.12311
C         32.81662        48.80735         0.22310
C         31.58725        48.09861         0.26211
C         32.83270        50.24773         0.66751
C         31.55125        50.99130         0.39162
C         32.83048        53.09280         0.41878
C         31.60148        52.36676         0.36458
C         35.41293        19.05847         0.35327
C         35.30220        20.30462        -0.22152
C         34.04216        21.00601        -0.44515
C         35.31977        23.06443        -1.05506
C         34.07993        22.32445        -0.98501
C         35.30433        24.47461        -1.28057
C         34.11707        25.10489        -1.76825
C         35.30108        27.33257        -1.67589
C         34.08231        26.57716        -2.21642
C         35.28714        28.74645        -1.67857
C         34.04295        29.45907        -2.22050
C         35.28735        31.72467        -1.56993
C         34.04453        30.99483        -1.97250
C         35.30539        33.15674        -1.18060
C         34.04270        33.84337        -0.92492
C         35.28459        36.01146        -0.90736
C         34.02188        35.31887        -0.86470
C         35.26965        37.46827        -0.85038
C         34.03468        38.16910        -0.77192
C         35.27762        40.31623        -0.73961
C         34.04604        39.59507        -0.67041
C         35.28294        41.74798        -0.68488
C         34.05913        42.44909        -0.50127
C         35.28980        44.60448        -0.53543
C         34.06071        43.87575        -0.41614
C         35.29232        46.03193        -0.46307
C         34.04433        46.72568        -0.24400
C         35.23328        48.92288        -0.31823
C         34.00671        48.13849        -0.07333
C         35.25772        50.34911         0.06857
C         34.08901        51.01356         0.30404
C         35.32796        53.19886         0.29665
C         34.06236        52.46507         0.39278
C         35.35480        54.61828         0.36777
C         37.84784        18.90435        -0.04403
C         36.65029        18.34901         0.40058
C         37.82669        20.26459        -0.52491
C         36.51146        20.88369        -0.91733
C         37.76539        23.09350        -0.97288
C         36.54066        22.38611        -0.91661
C         37.74642        24.51659        -0.98942
C         36.51221        25.21592        -1.16267
C         37.64922        27.35995        -0.67429
C         36.46001        26.63686        -1.25666
C         37.67977        28.81764        -1.01224
C         36.47576        29.46479        -1.31064
C         37.73303        31.69177        -0.85723
C         36.45292        30.92679        -1.11742
C         37.76156        33.14831        -1.09330
C         36.51040        33.86066        -1.13299
C         37.72817        36.08276        -1.42037
C         36.47664        35.30448        -1.07485
C         37.74206        37.38266        -0.58149
C         36.48392        38.18495        -0.79897
C         37.75712        40.32857        -0.87814
C         36.50799        39.59719        -0.79886
C         37.74290        41.75923        -0.90991
C         36.51192        42.47439        -0.77809
C         37.75562        44.63411        -0.79149
C         36.52051        43.90344        -0.70825
C         37.76095        46.06954        -0.73285
C         36.52634        46.73513        -0.57104
C         37.79893        48.96027        -0.50754
C         36.51857        48.20943        -0.59268
C         37.77661        50.31570        -0.30066
C         36.58650        51.01062         0.32089
C         37.77813        53.22471         0.10603
C         36.54525        52.51118         0.15254
C         37.78971        54.64487         0.26044
C         36.54612        55.31471         0.37296
C         40.35277        16.08849         0.17796
C         39.20181        16.81598         0.38097
C         40.28770        18.80297        -0.50376
C         39.12218        18.18255        -0.01680
C         40.24194        20.18649        -0.99955
C         38.99445        20.94977        -0.82367
C         40.23042        23.08030        -1.14900
C         39.00919        22.37156        -1.03992
C         40.20061        24.49474        -0.99464
C         38.99310        25.22534        -0.91244
C         40.17221        27.39055        -0.81988
C         38.98059        26.65619        -0.84342
C         40.18274        28.81732        -0.89065
C         38.92368        29.54217        -0.88050
C         40.25526        31.64424        -0.54234
C         38.97910        30.92614        -0.88091
C         40.22449        33.10401        -0.91178
C         39.00543        33.80353        -1.08031
C         40.25228        35.99321        -0.74462
C         39.02933        35.27937        -1.25007
C         40.18303        37.48407        -0.59963
C         39.01340        38.17315        -0.76875
C         40.19446        40.36388        -1.08217
C         38.98811        39.62244        -0.93512
C         40.17736        41.76282        -1.06295
C         38.96749        42.49199        -0.99185
C         40.19915        44.68246        -1.07040
C         38.98131        43.93697        -0.94639
C         40.24048        46.08663        -0.99610
C         39.00788        46.81490        -0.83621
C         40.27792        48.96017        -0.71294
C         39.03518        48.23239        -0.74880
C         40.27514        50.35355        -0.51563
C         38.98785        51.12918        -0.64544
C         40.22872        53.18367         0.10346
C         39.01099        52.51928        -0.06117
C         40.25891        54.61592         0.27033
C         39.05000        55.35097         0.28573
C         40.30509        57.45082         0.28507
C         39.10759        56.78024         0.31338
C         42.63331        15.89754        -0.76760
C         41.51038        16.68432        -0.40012
C         42.69278        18.73010        -1.17592
C         41.50580        18.08850        -0.66615
C         42.82641        20.19076        -1.17317
C         41.54116        20.92198        -1.26871
C         42.72418        23.06726        -1.11604
C         41.51839        22.39517        -1.19098
C         42.73892        24.56044        -1.33093
C         41.47629        25.18877        -0.78431
C         42.70828        27.37793        -1.07207
C         41.46515        26.68542        -0.67706
C         42.53974        28.69045        -1.46441
C         41.40780        29.51166        -1.11059
C         42.75282        31.64546        -0.75337
C         41.53550        30.93066        -0.95503
C         42.67635        33.06281        -0.42750
C         41.44761        33.78396        -0.63491
C         42.49283        35.67871         0.39779
C         41.39089        35.15883        -0.28620
C         42.61053        37.77307        -0.00004
C         41.45896        38.20521        -0.74512
C         42.77111        40.34273        -0.84246
C         41.50131        39.67888        -1.12936
C         42.74561        41.80097        -0.72631
C         41.44555        42.50332        -0.88587
C         42.77861        44.63865        -1.29684
C         41.45067        43.93313        -1.29014
C         42.73106        46.09359        -1.07774
C         41.52846        46.78444        -0.97990
C         42.73807        48.91830        -0.58577
C         41.55017        48.23592        -0.76802
C         42.80319        50.42610        -0.59301
C         41.47885        51.08838        -0.29816
C         42.71405        53.14228         0.43612
C         41.46529        52.43607         0.04460
C         42.74789        54.60495         0.25539
C         41.51643        55.31472         0.26049
C         42.78965        57.40624         0.19259
C         41.53899        56.73654         0.24323
C         43.68188        16.47958        -1.45576
C         45.65113        19.06128        -1.66409
C         43.69132        17.87614        -1.65827
C         45.35811        20.29480        -1.04135
C         44.01688        20.90794        -1.04603
C         45.07330        23.09258        -0.43217
C         43.96905        22.36471        -0.89026
C         45.10004        24.55075        -0.41785
C         43.98170        25.28332        -0.86129
C         45.22700        27.40819        -0.70356
C         43.99260        26.70504        -0.94183
C         45.31383        28.86066        -0.63701
C         44.32861        29.71819        -1.15342
C         45.14625        31.63659         0.03803
C         44.06957        31.02786        -0.66237
C         45.02003        33.02421         0.45456
C         43.82739        33.76443         0.03216
C         44.99187        36.03040         0.75109
C         43.78036        35.13088         0.38122
C         45.08920        37.31004        -0.15193
C         43.88187        38.22393        -0.24048
C         45.21090        40.27382        -0.42521
C         43.95367        39.60881        -0.64448
C         45.18670        41.76924        -0.20794
C         44.02654        42.51877        -0.82687
C         45.25405        44.61320        -0.74697
C         44.03985        43.88868        -0.98919
C         45.23223        45.99947        -0.52930
C         44.03484        46.76570        -0.93314
C         45.19221        48.79566         0.14579
C         44.05101        48.23312        -0.61726
C         44.90260        50.08299         0.69890
C         43.91382        50.93269         0.28558
C         45.28827        53.13306         0.36488
C         44.00099        52.39035         0.61239
C         45.22700        54.50814         0.04636
C         43.97683        55.27365         0.15612
C         43.97118        56.69660         0.12886
C         47.92626        19.08704        -0.87577
C         46.91404        18.46462        -1.59140
C         47.71000        20.34894        -0.28448
C         46.44538        20.96854        -0.42743
C         47.40942        23.08305         0.68457
C         46.24393        22.34190         0.08717
C         47.31912        24.60582         0.85470
C         46.27883        25.27102        -0.03732
C         47.69325        27.36197        -0.15698
C         46.35282        26.65425        -0.24351
C         47.60680        28.81327         0.24868
C         46.41785        29.52482         0.01829
C         47.55034        31.64357         0.67753
C         46.35871        30.93688         0.27365
C         47.57070        33.08314         0.74609
C         46.31052        33.82633         0.79999
C         47.52185        35.94977         0.43192
C         46.31541        35.27641         0.60920
C         47.55102        37.40275         0.25899
C         46.36738        38.10553         0.05344
C         47.63332        40.24280         0.03545
C         46.37158        39.54113        -0.11635
C         47.66264        41.69917        -0.09280
C         46.51957        42.40548        -0.41926
C         47.59053        44.52435         0.05163
C         46.56908        43.86864        -0.81735
C         47.34219        45.76394         0.56174
C         46.34220        46.67529         0.07515
C         47.73381        48.82846         0.56198
C         46.42799        48.10610         0.32805
C         47.79929        50.29815         0.36267
C         46.76444        51.13367         0.74371
C         47.67864        53.09820        -0.35115
C         46.55813        52.47073         0.26451
C         47.55554        54.45887        -0.71804
C         46.38540        55.14898        -0.46723
C         50.01778        20.34409         0.66890
C         48.81755        21.03287         0.38996
C         49.87770        23.08113         1.20936
C         48.73322        22.40153         0.73482
C         49.81037        24.54199         1.43712
C         48.67013        25.29156         0.85770
C         50.00880        27.36697         0.84402
C         48.77355        26.62815         0.60406
C         50.02833        28.78451         0.75201
C         48.78788        29.51008         0.59114
C         50.01539        31.61800         1.08434
C         48.75840        30.91516         0.78700
C         50.03752        33.14541         0.99399
C         48.76587        33.82581         0.71228
C         50.03306        35.92245         0.36712
C         48.77691        35.23302         0.50787
C         50.02495        37.35082         0.22057
C         48.82581        38.08164         0.22111
C         50.09818        40.23943         0.24557
C         48.82786        39.53066         0.14550
C         50.10945        41.69885         0.29141
C         48.93043        42.38523         0.08462
C         50.19650        44.62207         0.22575
C         48.91995        43.86783         0.03084
C         50.26058        46.07507         0.50859
C         49.18855        46.83494         0.92763
C         50.31109        48.99522         0.57197
C         48.99872        48.22688         0.64790
C         50.22100        50.29318        -0.18287
C         48.97480        50.96432        -0.16770
C         50.08984        52.95339        -1.02060
C         48.90943        52.34488        -0.52536
C         51.12191        21.00009         1.18300
C         52.34732        23.10701         1.70904
C         51.10238        22.39320         1.40877
C         52.39222        24.51072         1.63795
C         51.13513        25.27468         1.57938
C         52.44255        27.36413         1.23734
C         51.19279        26.69179         1.20258
C         52.48170        28.77043         1.03909
C         51.25914        29.48909         0.88311
C         52.50285        31.63067         0.84400
C         51.28682        30.91104         0.89948
C         52.51495        33.05962         0.68244
C         51.30301        33.81510         0.65853
C         52.55263        35.85831        -0.07463
C         51.26487        35.19138         0.36243
C         52.58289        37.34550         0.18762
C         51.30086        38.08274        -0.14305
C         52.54418        40.23810         0.49808
C         51.27433        39.52886         0.27883
C         52.57487        41.69129         0.28859
C         51.39116        42.41368         0.31136
C         52.67587        44.55614         0.20917
C         51.44988        43.85202         0.28690
C         52.68586        45.98414         0.14912
C         51.49432        46.75897         0.20568
C         52.71630        48.85046        -0.20951
C         51.50979        48.16378         0.14864
C         52.68607        50.23671        -0.54690
C         51.39826        50.93645        -0.61045
C         51.28969        52.26753        -1.08701
C         54.76281        23.09198         2.06439
C         53.56536        22.41570         1.94314
C         54.83888        24.49986         1.90636
C         53.62867        25.21527         1.68142
C         54.89043        27.33609         1.51627
C         53.65831        26.64251         1.49694
C         54.92892        28.75367         1.29212
C         53.72055        29.47919         1.07505
C         54.98920        31.57369         0.80624
C         53.74108        30.89598         0.89575
C         55.01055        33.01499         0.64496
C         53.77865        33.74391         0.56156
C         55.02766        35.85681         0.45075
C         53.80363        35.14663         0.38283
C         55.04804        37.29399         0.39587
C         53.77867        37.99948         0.33207
C         55.10145        40.18900         0.27589
C         53.82478        39.47368         0.52767
C         55.11363        41.58353         0.07577
C         53.83510        42.33313        -0.22063
C         55.12728        44.44911        -0.13820
C         53.91632        43.81663         0.04917
C         55.23814        45.91707        -0.01643
C         53.94911        46.72138         0.14902
C         55.16754        48.77991        -0.56800
C         53.95031        48.13822        -0.23796
C         55.11283        50.16614        -0.85072
C         53.90913        50.86646        -0.84413
C         57.31880        24.54098         2.24285
C         56.09230        25.21623         1.97178
C         57.35670        27.33027         1.77466
C         56.11299        26.61994         1.75653
C         57.40625        28.73160         1.50106
C         56.17265        29.44665         1.25548
C         57.48826        31.46977         0.70205
C         56.18861        30.82648         0.94352
C         57.50903        32.99640         0.51745
C         56.23199        33.72458         0.60154
C         57.50866        35.85662         0.62756
C         56.25806        35.14102         0.58556
C         57.51261        37.28078         0.52240
C         56.26862        38.00004         0.42333
C         57.54931        40.13638         0.18177
C         56.30257        39.44720         0.31070
C         57.56746        41.54820        -0.04376
C         56.33619        42.26675        -0.09528
C         57.54924        44.35385        -0.61118
C         56.35563        43.69518        -0.32236
C         57.50419        45.76912        -1.15209
C         56.38329        46.61251        -0.59966
C         57.63847        48.62505        -1.14026
C         56.39579        47.99215        -0.74706
C         58.51205        25.22129         2.29489
C         59.79401        27.32670         2.08636
C         58.56188        26.62292         2.05412
C         59.83679        28.67786         1.82176
C         58.65698        29.40687         1.50567
C         59.89627        31.55298         1.17411
C         58.72274        30.80900         1.14821
C         59.91583        32.95584         1.00190
C         58.76357        33.70496         0.79481
C         59.94189        35.89153         0.86883
C         58.74261        35.15240         0.78314
C         59.94754        37.26771         0.72298
C         58.75171        37.98822         0.51687
C         59.98484        40.13008         0.12459
C         58.77814        39.41981         0.28115
C         59.99843        41.49309        -0.14895
C         58.80496        42.23451        -0.25012
C         59.98437        44.35348        -0.86748
C         58.80016        43.64886        -0.59153
C         59.99721        45.74554        -1.09706
C         58.82583        46.48868        -1.12150
C         58.80605        47.91158        -1.24990
O         33.35786        33.12330         0.23813
O         40.03968        35.70752        -2.21219
O         36.82324        31.29931         0.24842
O         44.37140        47.74795        -1.97710
O         42.33762        36.90082         1.05029
O         31.86619        31.72948        -2.93190
O         41.68255        38.62048        -2.13000
O         48.15518        46.19950         1.61219
O         43.21966        52.76493         1.79693
O         41.59016        25.83009         0.51934
O         43.55199        29.28377        -2.23461
O         42.13024        44.20859        -2.55578
O         24.79959        28.81878         0.61468
O         32.10721        24.66508        -2.97766
O         45.81893        50.60227         1.62817
O         40.73850        20.36661        -2.37981
O         35.70352        48.74155        -1.72091
O         49.63038        44.38648        -1.19847
O         50.25871        25.00554         2.74500
O         30.73105        35.86778        -2.20523
O         25.54111        35.24340        -0.69967
O         50.01400        32.45663         2.29044
O         53.20499        39.86968         1.81227
O         44.70932        18.40578        -2.46850
O         54.82765        46.41828         1.29871
O         57.58410        32.08365        -0.62887
O         34.91530        31.60781        -2.99820
O         45.39000        33.33282         1.83787
O         46.42146        22.42046         1.56249
O         41.96268        42.28844         0.48368
O         52.55446        35.71330        -1.56414
H         53.46519        35.91224        -1.87285
O         27.12342        39.16533         2.68944
H         27.40215        40.04684         3.04595
O         34.19631        26.57014        -3.65704
H         33.41071        26.09598        -4.00776
O         38.86072        51.38250        -2.11036
H         38.65610        50.52247        -2.53795
O         44.87093        36.44297         2.12080
H         44.86194        35.63446         2.67675
O         34.04858        29.31963        -3.67125
H         34.64128        30.02372        -4.02533
O         50.61774        49.38352         1.96447
H         49.90327        49.98579         2.26360
O         48.18858        27.38026        -1.54919
H         47.53779        27.88415        -2.08347
O         28.32915        41.64528         2.60003
H         29.27540        41.41904         2.73378
O         24.93459        37.71318        -0.77238
H         25.13544        36.93947        -1.35416
O         36.81013        50.80503         1.77467
H         36.05798        51.21984         2.24966
O         46.81959        24.85592         2.20022
H         46.31096        24.05269         2.46673
O         37.39591        27.32392         0.79489
H         38.11045        27.84103         1.22537
O         46.99711        43.92521        -2.21517
H         47.97401        44.05554        -2.22527
O         37.61505        36.43143        -2.81342
H         38.53181        36.45548        -3.17720
O         32.90420        50.16766         2.14722
H         32.69534        51.06114         2.49484
O         53.69524        42.21043        -1.69416
H         52.90220        42.72533        -1.95930
O         37.72585        36.93795         0.80795
H         37.65671        37.72760         1.38428
O         43.14517        50.81418        -1.97064
H         42.55360        50.32123        -2.57801
O         29.43204        27.31653        -2.78452
H         29.87413        27.97276        -3.38014
O         31.11611        29.30743        -3.39213
H         31.91104        29.61326        -3.89089
O         40.27629        31.65057         0.94438
H         40.23358        30.71769         1.24472
O         26.86948        31.67848         2.99602
H         26.29650        32.21316         3.58665
O         42.65132        24.75950        -2.78111
H         43.39312        24.27478        -3.20004
O         45.18629        36.74978        -1.50292
H         45.23080        37.49371        -2.14054
O         51.29026        38.13491        -1.62137
H         51.52086        37.22149        -1.93105
O         44.93947        41.92243         1.25020
H         45.52213        41.28624         1.71833
O         57.18726        45.60225        -2.59292
H         57.93452        45.10979        -2.99534
O         36.34027        20.50623        -2.34119
H         36.39640        19.52792        -2.38942
O         30.13673        22.72506        -3.09796
H         30.82096        23.25204        -3.56941
H         23.77943        26.63778         3.88127
H         23.48028        29.06849         3.66742
H         22.86507        30.91089         2.64460
H         22.73376        33.37180         2.57519
H         23.05049        35.31549         3.11132
H         22.88825        37.76917         2.96848
H         22.22306        39.58324         1.69293
H         22.13478        42.02059         1.40217
H         22.07401        43.88040         1.09340
H         22.03825        46.32748         0.91791
H         26.56508        23.30706         1.90703
H         24.83894        24.52276         3.17506
H         25.31288        49.75976         0.56963
H         23.22437        48.47856         0.73960
H         27.49079        22.41851         0.36750
H         26.93132        50.73295         0.51117
H         28.90325        21.30909        -1.23871
H         29.01145        51.98216         0.40055
H         32.69439        19.43233         0.20739
H         30.64510        20.62973        -0.36412
H         32.76437        54.18894         0.41096
H         30.67863        52.95657         0.27303
H         34.52681        18.57040         0.78564
H         34.41644        55.18013         0.46607
H         36.63720        17.33778         0.82903
H         36.51459        56.40697         0.48076
H         40.37805        15.01787         0.42751
H         38.31942        16.31510         0.80137
H         40.32422        58.55024         0.28627
H         38.17621        57.36177         0.33287
H         42.62484        14.81648        -0.56947
H         42.80788        58.50564         0.19676
H         44.51333        15.87457        -1.84006
H         44.91926        57.24977         0.09239
H         48.90834        18.60187        -0.82168
H         47.09101        17.51079        -2.10418
H         48.39408        54.98805        -1.18948
H         46.33606        56.20937        -0.74794
H         50.09439        19.26498         0.48511
H         50.06855        54.00321        -1.34267
H         52.03432        20.41946         1.36943
H         52.17716        52.78973        -1.46934
H         55.67217        22.50980         2.26306
H         53.56985        21.32308         2.05070
H         56.03009        50.71566        -1.10089
H         53.92992        51.93819        -1.08557
H         57.31923        23.45814         2.42392
H         57.67489        49.71647        -1.25548
H         59.44633        24.68453         2.51392
H         60.71886        26.77784         2.31478
H         60.80706        29.19141         1.83963
H         60.84858        31.06768         1.42716
H         60.88228        33.46092         1.13407
H         60.89909        35.37441         1.01447
H         60.90991        37.79372         0.76677
H         60.94802        39.60756         0.19254
H         60.97006        41.98618        -0.28611
H         60.94980        43.83065        -0.84801
H         60.96524        46.25590        -1.21216
H         59.75779        48.43981        -1.41201
