         276
 CSIRO Nanostructure Databank - Neutral Graphene Oxide Data Set
C        -10.44416         0.51727        -0.21515
C         -9.44684         1.32392        -0.97009
C         -8.25500         0.59041        -1.52622
C         -6.90855         1.27459        -1.66393
C         -5.65321         0.51730        -1.23255
C         -4.56736         1.30220        -0.50632
C         -3.97196         0.71694         0.80142
C         -2.69280         1.48586         1.28023
C         -1.48189         0.72623         1.82976
C         -0.14464         1.40584         1.90671
C          1.14339         0.54142         1.94871
C          2.46620         1.27056         1.58613
C          3.52414         0.70104         0.70055
C          4.69279         1.59098         0.33343
C          5.75754         0.97960        -0.52914
C          7.15392         1.52512        -0.46787
C          8.15051         0.94258        -1.43302
C          9.45658         1.63431        -1.57799
C         10.65619         0.81059        -1.88086
C         -9.25088         2.79190        -0.62159
C         -8.18245         3.50700        -1.42999
C         -6.90443         2.77207        -1.72413
C         -5.58449         3.55406        -1.57651
C         -4.53188         2.77975        -0.72840
C         -3.75294         3.64683         0.26207
C         -2.52895         2.92055         0.84244
C         -1.12825         3.42312         0.53715
C          0.01470         2.71789         1.18653
C          1.23685         3.49969         1.59004
C          2.50505         2.74887         1.86454
C          3.81173         3.51520         1.85479
C          5.00363         2.77634         1.24665
C          6.30075         3.50498         1.01085
C          7.41222         2.84931         0.18606
C          8.58742         3.62236        -0.31695
C          9.56835         3.01106        -1.02812
C         -8.23965         4.86287        -1.55178
C         -7.00769         5.65736        -1.63637
C         -5.90704         4.90616        -0.88696
C         -4.64747         5.75940        -0.73005
C         -3.42395         4.93180        -0.46602
C         -2.07104         5.54542        -0.57108
C         -0.80590         4.79796        -0.14634
C          0.26216         5.67602         0.55674
C          1.24742         5.01529         1.49294
C          2.48197         5.79767         1.90513
C          3.81448         5.02875         2.01287
C          5.10416         5.77619         1.68081
C          6.36971         4.99190         1.27387
C          7.54921         5.76659         0.67923
C          8.70489         5.11326        -0.07299
C         -6.90774         6.93521        -2.07231
C         -5.62683         7.74832        -2.14706
C         -4.47569         7.05922        -1.42272
C         -3.12312         7.71292        -1.51050
C         -1.95859         7.01889        -0.89279
C         -1.10268         7.85337         0.06783
C          0.22114         7.17109         0.46086
C          1.24150         8.03287         1.16430
C          2.47270         7.32483         1.69365
C          3.78380         8.05916         1.62973
C          5.05545         7.25954         1.43104
C          6.04515         7.84341         0.43407
C          7.38288         7.18434         0.41366
C         -5.67195         9.13198        -1.49707
C         -4.53065         9.78480        -1.21527
C         -3.17846         9.24033        -1.64328
C         -1.94569         9.91284        -1.07213
C         -0.92161         9.27412        -0.44445
C          0.30786         9.96877        -0.08734
C          1.32675         9.42593         0.63323
C          2.48761        10.29042         1.10325
C          3.79309         9.52238         1.31165
C          5.04863        10.10781         0.76645
C          6.10409         9.35127         0.43571
C        -10.41583        -0.83109        -0.09607
C         -9.36667        -1.65050        -0.74550
C         -8.25773        -0.89126        -1.42177
C         -6.98270        -1.67020        -1.29775
C         -5.67874        -0.97652        -1.06710
C         -4.67571        -1.65484        -0.13300
C         -3.72910        -0.80932         0.67812
C         -2.92576        -1.44333         1.81195
C         -1.53906        -0.78024         1.88348
C         -0.28372        -1.51726         1.54032
C          0.89464        -0.68861         1.07909
C          1.91000        -1.23633         0.11332
C          3.13202        -0.35603        -0.32714
C          4.31138        -1.14211        -0.91296
C          5.59028        -0.38868        -1.18192
C          6.77260        -1.18296        -1.68965
C          8.11842        -0.56271        -1.43513
C          9.37459        -1.31534        -1.69474
C         10.60780        -0.53330        -1.97046
C         -8.80757        -2.97838        -0.21055
C         -9.13954        -4.31691        -0.82453
C         -7.30382        -2.97085        -0.65212
C         -6.20295        -3.83832        -0.07623
C         -4.89830        -3.12947         0.22349
C         -4.15414        -3.71336         1.42575
C         -2.83603        -2.99054         1.70496
C         -1.53950        -3.70157         1.47398
C         -0.45300        -2.84868         0.84090
C          0.90980        -3.50174         0.72313
C          1.88503        -2.76025        -0.21781
C          3.30115        -3.34503        -0.12862
C          4.35213        -2.63532        -0.93415
C          5.54132        -3.51334        -1.38374
C          6.71011        -2.69539        -2.09073
C          8.06635        -3.42723        -2.05194
C          9.25369        -2.74215        -2.05400
C         -8.81041        -5.44277        -0.08371
C         -7.50587        -6.14860        -0.49394
C         -6.44030        -5.29776         0.32993
C         -5.22001        -6.01535         0.85920
C         -4.01905        -5.25672         1.37193
C         -2.69222        -5.95843         1.54212
C         -1.48195        -5.16511         1.05543
C         -0.12317        -5.78408         1.42592
C          1.08009        -4.94778         1.04787
C          2.20911        -5.61461         0.26583
C          3.49116        -4.77128         0.27287
C          4.82494        -5.45679         0.09241
C          5.93585        -4.45944        -0.22916
C          7.16906        -5.78561        -2.16697
C          8.13009        -4.87119        -2.29626
C         -7.41302        -7.62422        -0.13190
C         -6.20537        -8.21825         0.05750
C         -5.03133        -7.29953         0.07913
C         -3.62694        -8.41229         1.53159
C         -2.53463        -7.45278         1.47770
C         -1.18078        -8.20930         1.49373
C          0.03345        -7.27223         1.52694
C          1.36301        -7.91422         1.16692
C          2.46668        -7.07853         0.60469
C          3.55625        -7.69315        -0.31700
C          4.88871        -6.94324        -0.10702
C          6.16011        -7.55655        -0.72849
C          6.41391        -6.86315        -2.07658
C         -5.99933        -9.66599         0.06215
C         -4.86061       -10.33837         0.34026
C         -3.56805        -9.81890         0.91996
C         -2.35079        -9.86152        -0.00006
C         -1.14398        -9.24958         0.37284
C          0.11309        -9.74248        -0.00659
C          1.31984        -9.40913         0.85372
C          2.63585        -9.94174         0.33932
C          3.67909        -9.18942        -0.08495
C          4.93618        -9.77911        -0.53785
C          6.02272        -9.05844        -0.88020
O         -0.69658        -1.37723         2.90864
O          8.42394         1.61377        -2.67802
O          0.72390        -0.51168        -0.35503
O          3.95844         9.05265         2.68805
O          2.49600        -7.47124         1.97859
O         -0.30396         2.44661        -0.20214
O          3.56591         0.44641         2.11618
O          3.81489        -1.89337        -2.07324
O          6.51647        -2.76085        -3.46756
O         -6.84540         1.96790        -2.94803
O         -7.11185        -2.87937        -2.09994
O          7.49421         5.35588         2.09958
O          3.67623        -3.67564         1.23020
O         -2.00533         7.22750        -2.33436
O          1.61613         3.08864         2.94825
O         -3.62778         1.89268        -1.44146
O          0.93674         6.41814        -0.54081
O          1.42438        -3.92886         2.00931
O          1.49063         7.94352         2.58181
O          4.03462         4.14829         3.14083
O         -1.84410         7.91621         1.25520
O         -2.65634         4.77553        -1.68120
O          1.41502         5.52199         2.84317
O         -3.49381        -5.62473         2.69713
O         -3.31989        -1.34720        -0.59311
O          7.78185         1.58553         0.84026
O         -3.21453        -8.17219         2.75591
O          6.95200        -4.34840         0.41948
O         -6.40463        -5.78571         1.68880
O         -2.89238         2.58749         2.21261
O          0.01371        -6.42947         2.71219
O         -9.27840        -1.58827        -2.20435
O         -5.02899        -3.91129        -0.97351
O          5.09984        -6.37805         1.20551
O          8.84439        -1.10503        -0.29969
O         -4.79998         6.95751         0.03432
O         -2.02658        -3.49807         2.81271
O          4.79888         1.96024        -1.06698
O         -5.10634        -0.36961        -2.25098
O         -0.97812         1.33160         3.07280
O         -9.31171         1.07515        -2.39613
O         -6.44559         4.59909         0.37899
O         -4.09783        -7.39568        -0.72116
O         -1.28456        -8.92096         2.70655
O          6.07524         2.68747         2.20474
O          5.52041         6.75004         2.69198
O          3.15960        -7.55507        -1.65320
O          5.97705        -0.35221        -2.58000
O          5.48993         7.42907        -0.87629
H          5.99733         7.88017        -1.58577
O         -3.59873        -1.12344         3.04468
H         -3.02758        -1.44964         3.77631
O          2.74220        11.36064         0.19811
H          2.03201        12.02701         0.28641
O          1.70288        -5.59026        -1.08038
H          2.23048        -6.24181        -1.64210
O         -8.77756         2.84085         0.73972
H         -8.15210         3.60284         0.83052
O         -5.04519        -3.44606         2.53074
H         -4.68660        -3.92586         3.31115
O         -0.99507        -2.61698        -0.47998
H         -0.31867        -2.15830        -1.04149
O          1.00981       -10.16707         2.05318
H          0.24990        -9.72913         2.53602
O         -3.10243         9.49706        -3.08595
H         -2.35258         8.95197        -3.42034
O          1.32560         0.07151         3.27966
H          1.34026         0.84447         3.88303
O         -5.32704         7.89835        -3.54620
H         -4.57534         8.54086        -3.62601
O          8.79131         5.78521        -1.33913
H          9.37148         5.26969        -1.93698
O          1.38835        -2.91430        -1.55274
H          2.08721        -2.59696        -2.17549
O          4.96653        -4.35703        -2.39041
H          5.26368        -3.94118        -3.25264
O         -7.21480        -6.09119        -1.87498
H         -7.72241        -5.36668        -2.30637
O         -4.60346         4.03244         1.35071
H         -4.86588         3.23084         1.85999
O         -9.28149        -4.34248        -2.15311
H         -9.27496        -3.41518        -2.51057
O         -5.00304         0.90000         1.79027
H         -4.69821         0.45636         2.62046
O         -1.57895        -5.25601        -0.38317
H         -1.36412        -4.37658        -0.79165
O         -3.18177       -10.69812         1.97903
H         -2.42613       -10.24709         2.46750
O          2.67788         0.45820        -1.42233
H          2.62420        -0.09917        -2.22811
O         -5.04617         3.82889        -2.86086
H         -5.12597         3.01130        -3.40211
O         -0.15131         4.46990        -1.38307
H         -0.82736         4.09618        -1.99201
O          7.26718        -7.31707         0.13813
H          6.93952        -6.80324         0.91526
H         11.51646        -1.09604        -2.23287
H         11.60680         1.33805        -2.05368
H         10.45576         3.59593        -1.32548
H          9.65093         5.31208         0.51166
H          8.15223         7.66366        -0.21457
H          7.02972         9.81945         0.06649
H          5.10403        11.20321         0.68654
H          2.19119        10.72062         2.10279
H          0.39596        11.01383        -0.42730
H         -1.80717        10.96754        -1.36390
H         -4.56244        10.77712        -0.74043
H         -6.64314         9.57540        -1.22816
H         -7.78748         7.38989        -2.55748
H         -9.19714         5.38468        -1.38628
H        -10.23101         3.34279        -0.70395
H        -11.21413         1.07782         0.33648
H        -11.15655        -1.33797         0.54035
H         -8.87441        -3.02246         0.89686
H         -8.76637        -5.21037         0.99837
H         -8.32243        -8.23734        -0.23388
H         -6.87037       -10.26306        -0.25298
H         -4.88416       -11.43469         0.24349
H         -2.34078       -10.63021        -0.79032
H          0.16365       -10.60649        -0.69028
H          2.76276       -11.03272         0.42250
H          4.97442       -10.87851        -0.60254
H          6.93189        -9.58545        -1.20662
H          5.79507        -7.18258        -2.93363
H          9.13501        -5.24823        -2.56977
H         10.19129        -3.31497        -2.14473
