         280
 CSIRO Nanostructure Databank - Neutral Graphene Oxide Data Set
C         30.30465        31.67535        -0.27636
C         30.26701        32.79653         0.22983
C         30.06398        36.04841         1.02416
C         30.05482        37.27916         1.16532
C         30.06044        40.32984         0.88882
C         30.02436        41.47148         0.40470
C         32.78346        29.17146        -1.55778
C         31.69741        29.61480        -1.17694
C         32.70714        31.75559        -0.63524
C         31.29771        31.06039        -1.17892
C         32.66859        33.09515         0.05833
C         31.35450        33.72077         0.57384
C         32.42995        36.14918         0.61996
C         31.25019        35.17621         0.87812
C         32.40085        37.34910         1.61079
C         31.11504        38.13800         1.73843
C         32.51017        40.26993         1.01924
C         31.18798        39.62325         1.51833
C         32.47998        41.36785        -0.03988
C         31.11257        42.05193        -0.38828
C         32.43842        44.01897        -0.95511
C         31.36573        43.43389        -0.78238
C         35.34012        27.67057        -1.66513
C         35.37064        29.12471        -2.10374
C         34.06515        29.85398        -1.81517
C         35.28343        31.99525        -0.94510
C         33.99240        31.27309        -1.29855
C         35.22978        33.35708        -0.30583
C         33.87087        33.99661        -0.06976
C         35.03899        36.01124         0.98602
C         33.80231        35.42984         0.37107
C         34.84370        37.15894         1.67015
C         33.69778        38.07925         1.64555
C         35.16529        40.09961         0.74048
C         33.83655        39.53986         1.26611
C         35.11912        41.39864        -0.03696
C         33.79340        42.02884        -0.44659
C         35.05595        44.26129        -1.13886
C         33.79345        43.46213        -1.03175
C         35.18467        45.72489        -1.04531
C         37.72501        27.41300        -1.22365
C         36.45041        27.04545        -1.62694
C         37.66248        28.82507        -0.73160
C         36.61189        29.76414        -1.32860
C         37.56981        31.64399         0.25969
C         36.56296        31.18375        -0.82088
C         37.72883        33.18194         0.36179
C         36.48139        34.01213         0.29027
C         37.67541        35.96143         1.52269
C         36.30534        35.16397         1.30669
C         37.77793        37.45433         1.34752
C         36.73600        38.24200         1.73095
C         37.70901        40.20973         0.57121
C         36.54717        39.72468         1.46954
C         37.69618        41.67498         0.25295
C         36.35957        42.28905        -0.04817
C         37.61849        44.51552        -0.51213
C         36.38510        43.63035        -0.76304
C         37.61400        45.95772        -1.02821
C         36.21127        46.40559        -1.01814
C         40.10909        24.51243        -1.16472
C         39.13454        25.23657        -1.37020
C         40.19591        27.24272        -0.46482
C         38.99249        26.68969        -1.24831
C         40.12130        28.62553         0.14575
C         38.85894        29.43477        -0.07564
C         40.21462        31.62124         0.24386
C         38.91103        30.94520        -0.02413
C         40.21692        32.93491         0.99145
C         38.92839        33.69130         1.13724
C         40.27258        35.91758         1.14873
C         38.96761        35.18372         1.44459
C         40.35438        37.40456         1.41113
C         39.07506        38.24691         1.42433
C         40.29494        40.10514         0.07641
C         38.99824        39.44926         0.49333
C         40.26033        41.57803        -0.34508
C         38.89079        42.30080        -0.50419
C         40.25047        44.62786        -0.42378
C         38.94546        43.83923        -0.29156
C         40.22449        46.11352        -0.70590
C         38.87561        46.75101        -1.04889
C         40.01597        48.88826        -0.69427
C         39.00993        48.21056        -0.92976
C         42.66482        24.43235        -0.80828
C         41.28215        24.53279        -0.29412
C         42.65430        27.03278         0.30097
C         41.33722        26.36357         0.03055
C         42.75932        28.55123         0.04853
C         41.44213        29.30644         0.35338
C         42.78987        31.49180         0.39772
C         41.48950        30.80297         0.20470
C         42.81288        32.94073         0.79484
C         41.54037        33.65439         1.12766
C         42.95386        35.78759         1.18485
C         41.55903        35.15781         0.96456
C         42.95240        37.33350         1.12367
C         41.65054        38.10571         1.15964
C         42.91175        40.23709         0.32486
C         41.61366        39.44691         0.43848
C         42.88665        41.69699        -0.04349
C         41.55301        42.36780        -0.36976
C         42.82019        44.67812        -0.50280
C         41.55143        43.87520        -0.56922
C         42.78984        46.20758        -0.58810
C         41.51328        46.88591        -0.98091
C         42.58519        48.98246        -0.21100
C         41.41954        48.75076        -1.07719
C         43.72634        24.99122        -0.52607
C         45.27213        26.94566         0.42646
C         43.97465        26.25001         0.19491
C         45.28412        28.44910         0.79638
C         43.98539        29.20654         0.74550
C         45.31825        31.47375         0.57724
C         44.03150        30.72675         0.75684
C         45.27870        32.89529         0.05242
C         44.00719        33.67944         0.22341
C         45.40254        35.84628         0.35305
C         43.99233        35.21634         0.16176
C         45.48458        37.33581         0.51227
C         44.21835        38.09081         0.86074
C         45.47443        40.36122         0.65559
C         44.19639        39.60346         0.80294
C         45.41663        41.87375         0.52614
C         44.06477        42.55536         0.35335
C         45.34039        44.79165        -0.06522
C         44.04132        44.03354         0.11198
C         45.23208        46.26812         0.34031
C         43.92290        46.96755         0.10562
C         43.66202        48.41271         0.00756
C         47.72486        27.17615         0.08175
C         46.63233        26.61177         0.00674
C         47.95730        28.49653         0.83935
C         46.59526        29.20687         0.56230
C         47.84063        31.48878         0.62798
C         46.58409        30.69145         0.36916
C         47.88253        32.86382        -0.00660
C         46.58657        33.62151        -0.21822
C         47.96783        35.89347        -0.04395
C         46.61995        35.12992        -0.18381
C         47.79498        37.28802        -0.74412
C         46.61533        38.11501        -0.13275
C         47.97383        40.33175        -0.08465
C         46.64417        39.61679         0.01595
C         47.98145        41.83398         0.09664
C         46.69441        42.61611         0.27610
C         47.94804        44.82502         0.15270
C         46.66737        44.07592        -0.10956
C         47.61701        46.16925         0.33299
C         46.57216        46.85104         0.48401
C         50.52878        28.79764         0.73699
C         49.15928        29.28893         0.29163
C         50.43491        31.58563         0.85966
C         49.14389        30.77564         0.77475
C         50.36605        33.08863         0.63457
C         49.17893        33.62053        -0.12608
C         50.45403        35.88722        -0.64462
C         49.11236        35.07258        -0.71296
C         50.43712        37.35796        -1.01352
C         49.11349        38.12150        -0.96959
C         50.45667        40.52493        -0.92636
C         49.15092        39.63267        -0.76256
C         50.47239        41.77473        -0.01508
C         49.22263        42.61599        -0.24032
C         50.54140        44.53748         0.38112
C         49.21471        44.14200        -0.09986
C         51.58736        29.44435         0.68501
C         52.87406        31.81901         0.66991
C         51.81192        30.85758         0.97786
C         52.78829        33.05234         0.65602
C         51.62831        33.95349         0.67717
C         52.81973        36.09999        -0.24715
C         51.59655        35.43755         0.33230
C         52.82196        37.29616        -0.55685
C         51.74096        38.18533        -0.99098
C         52.87047        40.47091        -0.39699
C         51.76916        39.66881        -0.94097
C         52.91190        41.62717         0.03006
C         51.77617        42.43943         0.46488
C         51.59193        43.89265         0.46685
O         35.28657        40.09566        -0.69498
O         43.78116        37.80076         2.22822
O         41.76946        26.59442         1.37535
O         46.13470        39.00399        -1.20016
O         44.34807        33.07686        -1.05904
O         43.20002        40.69863        -1.04093
O         46.57713        29.80804        -0.77910
O         35.94264        43.69243        -2.13739
O         40.66905        28.83002         1.47814
O         40.31382        45.61237         0.65927
O         37.50141        34.09724        -0.74244
O         31.48253        34.21520         1.92495
O         48.85187        39.05174        -2.06110
O         46.16836        42.46861         1.62503
O         38.17550        44.38066         0.81244
O         48.75066        32.70563        -1.16960
O         44.50296        28.67386         1.99104
O         45.96795        44.47924        -1.34471
O         31.69571        37.44062         2.87122
O         50.79143        33.76893         1.84893
O         50.72120        36.31284        -1.99776
O         44.67638        26.12079         1.44963
O         33.83666        30.97439        -2.72900
O         41.00250        39.26420        -0.87415
O         40.80212        35.60156        -0.18494
O         42.35505        44.13047        -1.76209
O         39.40852        32.85156         2.22024
O         50.91546        41.70492         1.36322
O         35.80897        37.61386         2.55443
O         44.94479        40.05120         1.97423
O         37.75579        28.91260         0.73150
O         43.77343        43.48895         1.43439
O         45.78438        36.43861         1.63639
O         38.31589        46.20202        -2.26697
O         38.00601        39.34544        -0.55976
O         49.22446        43.44976        -1.41205
O         44.26221        46.44418         1.40157
O         40.10828        27.37611        -1.91352
O         48.34867        31.15281         1.94789
O         42.41937        33.14794         2.16970
O         42.46871        46.56662        -1.99045
O         31.91653        40.55480         2.33322
O         41.16460        37.90013         2.52022
O         33.78997        35.07886        -1.05297
O         44.72675        31.30425         1.89518
O         46.46946        34.42249        -1.42625
O         51.92576        38.97493        -2.19222
O         48.28414        40.92376         1.20141
O         37.18542        30.85738        -2.08869
O         39.61920        31.62562        -1.09061
O         36.98335        42.41462         1.26459
O         32.92239        31.85009         0.78898
O         40.99999        41.76162        -1.57792
O         33.86976        39.11825         2.64936
O         33.80689        42.31022        -1.88125
O         51.09822        31.27147         2.13602
O         31.69050        41.06998        -1.24465
O         35.42235        33.18962        -1.74692
O         42.31172        31.21633        -0.94987
O         38.37677        35.51198         2.73706
O         35.64241        29.18534        -3.48209
H         35.15574        29.94475        -3.87172
O         39.03440        38.89577         2.72591
H         39.18193        38.22560         3.42767
O         32.14545        36.86253        -0.60111
H         32.48808        36.33790        -1.36405
O         43.36046        35.38824         2.48596
H         43.85501        36.13809         2.89970
O         43.56567        35.61260        -1.14170
H         43.91548        34.96003        -1.79270
O         43.01771        28.64932        -1.36352
H         42.87362        29.58317        -1.65764
O         36.57392        40.39269         2.72620
H         35.93781        39.94166         3.32444
O         49.12422        29.32680        -1.11383
H         48.80840        28.45944        -1.45091
O         41.09248        23.89113         0.89507
H         41.87095        24.01027         1.47689
O         36.00981        34.49842         2.54499
H         36.73208        34.69219         3.18892
O         47.33160        36.97126        -2.06376
H         47.24599        37.82022        -2.55790
O         50.34999        41.09963        -2.22636
H         50.46824        40.38149        -2.88870
O         48.85523        34.85569        -2.08331
H         48.47179        35.66383        -2.49585
O         48.08519        28.25777         2.20596
H         49.01003        28.00413         2.41263
O         37.03278        31.25512         1.52803
H         37.69646        31.43377         2.23109
O         48.35517        36.05372         1.31583
H         47.56243        36.27814         1.86383
O         41.62891        49.09019        -2.38281
H         42.51925        48.80027        -2.67113
O         38.51334        42.12239        -1.88174
H         39.32412        41.99223        -2.42682
O         31.07915        31.48150        -2.48427
H         31.82481        31.17527        -3.05140
O         51.29014        36.15282         1.52595
H         51.60377        35.65179         2.30863
