         264
 CSIRO Nanostructure Databank - Neutral Graphene Oxide Data Set
C        -11.29716         0.67262        -0.24837
C        -10.24329         1.53191         0.41571
C         -9.02497         0.71643         0.94682
C         -7.74903         1.43768         1.32029
C         -6.43149         0.70018         1.49231
C         -5.14613         1.46684         1.61606
C         -3.81871         0.73878         1.77442
C         -2.52604         1.50163         1.88497
C         -1.20670         0.74375         1.90183
C          0.10408         1.52285         1.99770
C          1.40834         0.76708         1.90141
C          2.72398         1.52556         1.71218
C          4.01391         0.73354         1.60146
C          5.35819         1.44639         1.28401
C          6.29625         0.68379         0.34643
C          7.41850         1.43106        -0.30105
C          8.67079         0.69310        -0.64983
C          9.99763         1.42766        -0.89194
C         11.17094         0.60738        -0.38621
C         -9.93886         2.66940        -0.58556
C         -8.86177         3.39373        -0.81750
C         -7.66783         2.94982         1.42917
C         -6.41862         3.61238         0.90015
C         -5.12306         2.85867         1.04250
C         -3.78527         3.54352         0.88351
C         -2.50382         2.89591         1.32158
C         -1.21681         3.70119         1.34310
C          0.08880         3.00608         1.64010
C          1.28015         3.43826         0.76062
C          2.65724         2.93288         1.20802
C          3.86653         3.47350         0.43083
C          5.20652         2.94638         0.96151
C          6.42658         3.66871         0.50840
C          7.45990         2.95103        -0.32624
C          8.82880         3.59232        -0.23760
C          9.98324         2.85382        -0.39280
C         -8.02037         4.32882        -1.24385
C         -7.66494         5.53015        -0.34704
C         -6.43604         5.07347         0.50663
C         -5.08546         5.68904         0.27059
C         -3.79917         5.04084         0.73095
C         -2.49011         5.76314         0.57240
C         -1.22054         4.91728         0.37532
C          0.04864         5.74418         0.56731
C          1.29330         4.93387         0.35293
C          2.55505         5.65996        -0.01357
C          3.84497         5.01310         0.39556
C          5.11170         5.79653         0.27426
C          6.32501         5.01020        -0.17307
C          7.63402         5.77983        -0.20416
C          8.83295         5.01888        -0.17092
C         -7.40700         6.83545        -1.08167
C         -6.17846         7.38044        -1.28476
C         -5.02035         6.49049        -1.00335
C         -3.61351         8.13173         0.08592
C         -2.44859         7.15502        -0.01228
C         -1.14905         7.88052        -0.16831
C          0.09958         7.23084         0.35321
C          1.41765         7.97813         0.13356
C          2.56938         7.13863        -0.46359
C          3.75717         7.98614         0.00675
C          5.10823         7.28916         0.07809
C          6.37234         7.94923        -0.38427
C          7.60644         7.13635        -0.49225
C         -5.94564         8.70700        -1.85519
C         -4.80861         9.45342        -1.76951
C         -3.59420         9.15290        -1.01510
C         -2.40125         9.78211        -1.19260
C         -1.20611         9.40875        -0.32696
C          0.11375         9.91290        -0.86334
C          1.29724         9.28111        -0.64499
C          2.56332         9.86864        -1.06404
C          3.76676         9.27559        -0.79448
C          5.02437         9.84256        -1.24908
C          6.23081         9.24648        -1.08236
C        -11.26319        -0.65632        -0.37165
C        -10.15752        -1.49247         0.16424
C         -8.97242        -0.80302         0.76397
C         -7.64721        -1.53723         0.87244
C         -6.37824        -0.78649         1.18289
C         -5.05357        -1.28194         0.60260
C         -3.78159        -0.59516         1.05695
C         -2.44576        -1.28254         0.86350
C         -1.21006        -0.70294         1.51529
C          0.09098        -1.39702         1.18298
C          1.37628        -0.67471         1.42792
C          2.63394        -1.48820         1.58149
C          3.95576        -0.75824         1.46285
C          5.04608        -1.42561         0.66342
C          6.30721        -0.68377         0.38896
C          7.56018        -1.47787         0.20144
C          8.77409        -0.75854        -0.28218
C          9.94264        -1.44961        -0.97266
C         11.17631        -0.73366        -0.45019
C        -10.08361        -2.88337        -0.42648
C         -8.77425        -3.62108        -0.24623
C         -7.55324        -2.95172         0.29553
C         -6.21329        -3.52615        -0.08433
C         -5.00632        -2.59840        -0.25920
C         -3.67347        -3.38507        -0.15005
C         -2.41695        -2.69241         0.36183
C         -1.14547        -3.51579         0.50207
C         -0.03816        -2.91386         1.37857
C          1.27581        -3.72243         1.31287
C          2.59296        -2.97097         1.38941
C          3.86218        -3.69388         0.97332
C          4.96470        -2.88109         0.31540
C          6.19024        -3.58702        -0.34899
C          7.51708        -2.99861         0.16183
C          8.72254        -3.63188        -0.52858
C          9.87887        -2.94206        -0.83616
C         -8.72338        -4.88532        -0.72912
C         -7.45358        -5.56801        -1.06720
C         -6.18203        -4.80752        -0.89508
C         -4.88528        -5.64302        -0.90430
C         -3.66171        -4.87604        -0.36140
C         -2.60706        -5.62769         0.46372
C         -1.21682        -4.99963         0.35944
C         -0.01094        -5.85877         0.57163
C          1.25682        -5.18222         0.95412
C          2.53826        -5.92992         0.68538
C          3.83198        -5.16116         0.68781
C          5.01996        -5.75356        -0.01848
C          6.35209        -5.03731         0.16049
C          7.48885        -5.78823        -0.52243
C          8.65233        -5.02681        -0.79415
C         -7.41988        -7.04802        -1.17707
C         -6.30974        -7.76252        -0.84090
C         -5.10617        -7.03941        -0.33941
C         -3.89288        -7.83397         0.00370
C         -2.59275        -7.13984         0.26240
C         -1.31871        -7.88166         0.06297
C         -0.03424        -7.15255         0.13999
C          1.16415        -7.81721        -0.50999
C          2.47508        -7.26962         0.03140
C          3.68260        -7.89381        -0.57522
C          4.99075        -7.17051        -0.47830
C          6.27108        -7.96222        -0.25096
C          7.43918        -7.15468        -0.74716
C         -6.26239        -9.21589        -0.81922
C         -5.13440        -9.92405        -0.53629
C         -3.84550        -9.28520        -0.30062
C         -2.66282        -9.94072        -0.48487
C         -1.33692        -9.22585        -0.64191
C         -0.07865       -10.02919        -0.36205
C          1.16120        -9.40774        -0.30222
C          2.40892       -10.04432        -0.20669
C          3.65297        -9.41163        -0.65667
C          4.98318       -10.08070        -0.72400
C          6.14882        -9.40742        -0.69047
O          4.93309        -6.07161        -1.44213
O         -0.51698         3.90950         2.59250
O         -1.29740        -0.32439         2.89675
O         -5.92798         1.16212         2.79735
O          7.51079        -3.50367         1.55181
O          6.08961         3.66923         1.89425
O          4.49614         5.53012         1.57790
O          2.83995         2.68374         2.60817
O         -4.37003         8.17640         1.03363
O          0.00984         6.64998         1.69094
O         -3.12860         5.68012         1.86414
O          6.76652        -4.81536         1.54351
O          7.67457         0.92713        -1.67671
O         -7.04262        -1.54869         2.20906
O         -4.84757        -7.36965         1.04542
O          3.46023        -8.52876        -1.83549
O         -3.24634        -3.98414        -1.42140
O          2.68546        -2.37616         2.72689
O         -5.94616         6.10073         1.37527
O         -6.81818        -4.79490        -2.19579
O          1.92376         8.33616         1.46352
O         -2.96892         2.82338        -0.09289
O         -8.72160         1.00173         2.33124
O          4.26368        -4.65006         1.98678
O          1.79625         4.93841        -1.03143
O          1.24470        -4.74248         2.36365
O         -1.95405        -7.84641         1.39308
O         -6.75146        -3.78228         1.22334
O         -3.28498         1.11547         3.06739
O         -1.75144         7.19065        -1.29508
O          0.82392        -0.84862         0.06505
O         -4.42777        -0.25536        -0.22327
O         -0.83145        -4.12983        -0.77401
O         -8.51958         3.58294         2.03395
O          4.26475        -0.15784         2.73765
O          4.41406        -1.89827        -0.61218
O          6.11892         4.56979        -1.56632
O          3.40047         8.31184         1.39446
O          0.82552         1.09939         3.18605
O          5.95491         7.96980         1.05102
O          1.02024        -7.57289        -1.84888
O          8.62354        -1.01781         1.13122
O         -9.99997        -1.43720         1.60552
O         -2.16488        -1.54568        -0.53732
O          2.59308        -7.16912         1.47840
O         -4.16259         6.23227        -1.83759
O         -5.86162         2.84954        -0.22669
O          6.94331         3.32671        -1.69067
O         -1.19251        -8.99546        -2.07046
H         -0.35370        -8.44340        -2.21243
O        -10.88165         2.16027         1.53343
H        -10.18776         2.35279         2.20988
O          2.55104         7.16156        -1.88850
H          2.00296         6.40574        -2.20285
O          3.78694         2.93499        -0.89809
H          2.87822         3.10254        -1.24886
O         10.15423         1.52435        -2.34474
H          9.27140         1.78650        -2.69887
O         -3.01555        -5.38855         1.83597
H         -2.83874        -6.20756         2.35257
O         -5.13882        -2.17597        -1.62333
H         -4.34893        -1.63357        -1.84610
O          1.02391         2.69399        -0.46595
H          0.31978         3.17754        -0.97288
O         -8.74925         5.83857         0.52376
H         -8.88486         5.10567         1.17096
O         -1.41713         9.99520         0.97993
H         -0.62679         9.82573         1.53542
O          6.14346         1.36642         2.49194
H          5.64040         1.78317         3.22416
O          9.84670        -1.22244        -2.40158
H         10.08433        -0.27667        -2.58894
O          6.07453        -3.53128        -1.75365
H          5.44881        -2.80810        -1.98782
O         -0.56228        -3.02118         2.71758
H         -0.08896        -3.75899         3.17322
O        -10.31413        -2.72515        -1.83645
H        -10.10409        -3.56673        -2.29175
O         -4.56583        -5.95335        -2.27541
H         -4.36840        -5.10526        -2.73299
O         -1.13410         4.43017        -0.97721
H         -1.96703         3.94610        -1.19782
O          6.41549        -8.06153         1.20584
H          6.69555        -7.18969         1.56314
H         12.05161        -1.30976        -0.11450
H         12.05376         1.15155        -0.01757
H         10.94952         3.38269        -0.38859
H          9.79860         5.54562        -0.19863
H          8.55276         7.66894        -0.67491
H          7.13851         9.72065        -1.48334
H          4.96997        10.80189        -1.78615
H          2.52977        10.82013        -1.61650
H          0.11822        10.89005        -1.37208
H         -2.28345        10.57674        -1.94630
H         -4.79896        10.41261        -2.31269
H         -6.79590         9.14417        -2.40334
H         -8.30986         7.41822        -1.32311
H         -7.38195         4.13975        -2.12496
H        -10.86226         3.02918        -1.08236
H        -12.16582         1.22601        -0.63665
H        -12.08478        -1.18323        -0.87807
H        -10.91903        -3.50268         0.01427
H         -9.65484        -5.36126        -1.08021
H         -8.34336        -7.56533        -1.48069
H         -7.18946        -9.75534        -1.06532
H         -5.16099       -11.02321        -0.57921
H         -2.68702       -11.00500        -0.76868
H         -0.11090       -11.09412        -0.65305
H          2.48320       -11.00584         0.32930
H          4.99094       -11.16221        -0.93195
H          7.08916        -9.96551        -0.81750
H          8.31309        -7.66313        -1.18263
H          9.51901        -5.52148        -1.25828
H         10.71423        -3.51022        -1.27670
