         294
 CSIRO Nanostructure Databank - Neutral Graphene Oxide Data Set
C          1.19470         1.83627        -0.37226
C          1.12445         3.20965        -0.45814
C          2.40413         1.13086        -0.21251
C          2.36814         4.04339        -0.63972
C          1.07936         6.30857        -0.31223
C          1.08621         7.66717        -0.23736
C          2.29411         5.47422         0.02712
C          2.27414         8.46687        -0.02664
C          1.05717        10.61451        -0.05079
C          1.01529        11.97568        -0.30084
C          2.26839         9.86463        -0.05889
C          2.15606        12.72670        -0.67097
C          1.00383        15.02038        -0.87933
C          1.23582        16.40150        -0.98192
C          1.99583        14.04709        -1.15269
C          2.47751        17.09636        -0.96920
C          2.48152        18.54436        -0.84016
C          3.58903         1.81515         0.25037
C          3.55499         3.37456         0.06879
C          4.90179         1.20069         0.40114
C          4.94283         3.99490        -0.07827
C          3.55818         6.30770        -0.34154
C          3.52435         7.69656         0.35526
C          4.88699         5.55260        -0.10741
C          4.82555         8.46721         0.23628
C          3.57419        10.59706        -0.39467
C          3.54023        12.16754        -0.24407
C          4.76276         9.97906         0.36725
C          4.85440        12.80734        -0.93447
C          3.93582        15.09096        -1.16084
C          3.75037        16.45604        -0.84743
C          4.97994        14.30524        -0.68696
C          4.88910        17.13209        -0.32541
C          3.57271        19.24629        -0.44883
C          4.85801        18.60373        -0.00310
C          6.05801         1.90622         0.75154
C          5.90811         3.40322         1.02527
C          7.30266         1.25075         0.85916
C          7.25950         4.14160         1.05664
C          6.05271         6.34166         0.40097
C          5.98465         7.82680         0.52194
C          7.25936         5.62466         0.92585
C          7.18092         8.59994         1.05625
C          6.08781        10.60965        -0.03751
C          6.14100        12.07015        -0.49528
C          7.31684         9.98034         0.45780
C          7.37062        12.78995        -0.09457
C          6.11964        14.99023        -0.21448
C          6.05814        16.41515        -0.10238
C          7.27950        14.23276         0.38156
C          7.30569        17.13995         0.34675
C          6.13176        19.26277        -0.62273
C          7.38037        18.60295        -0.06645
C          8.56465         1.92499         0.94639
C          8.52355         3.39888         0.71993
C          9.78187         1.28124         0.94481
C          9.79838         4.15549         0.49981
C          8.51549         6.38706         0.66238
C          8.50615         7.83151         1.06374
C          9.80392         5.66138         0.46783
C          9.79996         8.53084         0.87506
C          8.51768        10.63020         0.26524
C          8.53247        12.06092         0.06468
C          9.80770         9.84929         0.14769
C          9.87339        12.74937         0.29362
C          8.66573        14.99013         0.39261
C          8.49018        16.36782        -0.29942
C          9.81100        14.18299        -0.21609
C          9.80471        17.14221        -0.30612
C          8.56984        19.23884        -0.01103
C          9.82689        18.49222         0.41739
C         11.11213         1.99025         1.07076
C         11.09564         3.47426         0.72652
C         12.27952         1.33487         0.37617
C         12.26479         4.16147         0.75016
C         11.06350         6.39450         0.73375
C         11.05637         7.74468         0.78081
C         12.31544         5.63705         1.07945
C         12.30334         8.51806         1.11861
C         11.11927        10.59012         0.27036
C         11.04974        11.96218        -0.36194
C         12.28513         9.93895         0.55655
C         12.33066        12.78042        -0.18210
C         11.04882        14.89349        -0.69357
C         11.07756        16.39907        -0.53114
C         12.36968        14.10621        -0.96081
C         12.33693        17.04800        -0.04484
C         11.12855        19.21522         0.15762
C         12.33199        18.54202         0.04196
C         13.47575         2.00344         0.27213
C         13.59097         3.42332         0.82052
C         14.65261         1.36151        -0.22838
C         14.63939         4.24441         0.04368
C         13.55445         6.40181         0.66764
C         13.54526         7.74962         0.73883
C         14.87667         5.68903         0.46138
C         14.84910         8.48053         0.87573
C         13.57403        10.62013         0.46787
C         13.59616        12.08607         0.21334
C         14.75115         9.95527         0.63697
C         14.92002        12.71138        -0.05005
C         13.67673        14.89549        -0.70492
C         13.62383        16.31419        -0.18468
C         14.96241        14.15458        -0.42042
C         14.90871        17.10573        -0.36071
C         13.58293        19.22065         0.10769
C         14.83921        18.55329         0.11973
C         15.82205         2.06468        -0.56055
C         15.74636         3.54330        -0.67014
C         17.04527         1.43317        -0.80779
C         16.97828         4.30224        -1.10765
C         15.70954         6.54485        -0.59116
C         15.96856         7.88839         0.04912
C         16.98120         5.81513        -1.09410
C         17.17718         8.58973         0.01588
C         16.03422        10.68453         0.92056
C         16.06232        12.06435         0.29440
C         17.27644         9.88470         0.57855
C         17.37373        12.75041         0.18131
C         16.17724        14.89533         0.04104
C         16.07793        16.37242         0.34279
C         17.33382        14.23797         0.29106
C         17.40005        17.13903         0.09033
C         16.01201        19.23613         0.40492
C         17.31903        18.55348         0.73207
C         18.24509         2.16560        -1.08069
C         18.25203         3.56479        -1.17196
C         19.47587         1.43347        -1.23652
C         19.49209         4.30630        -1.63419
C         18.30899         6.59769        -1.32115
C         18.38541         7.97247        -0.61224
C         19.56490         5.74757        -1.13373
C         19.71665         8.53166        -0.21781
C         18.57310        10.55332         0.98334
C         18.62919        12.01281         0.51880
C         19.84525         9.82199         0.55458
C         19.89402        12.78868         0.89736
C         18.54571        14.94575         0.87996
C         18.60850        16.40412         0.55278
C         19.82851        14.23981         0.36647
C         19.83363        17.17702         0.95738
C         18.59040        19.27695         0.37074
C         19.77952        18.61865         0.46334
C         20.68138         2.09293        -1.34598
C         20.74391         3.50648        -1.37016
C         21.96936         4.17336        -1.18919
C         20.79601         6.31771        -0.88687
C         20.98496         7.69055        -0.26094
C         21.99763         5.53487        -0.95303
C         22.05824         8.57244        -0.87746
C         21.11187        10.58507         0.25256
C         21.14258        12.07062         0.39078
C         22.10547         9.89202        -0.61625
C         22.28177        12.81222         0.29529
C         21.13535        14.98324         0.60893
C         21.12340        16.44275         0.61183
C         22.28806        14.24215         0.51262
C         22.23896        17.17577         0.29575
C         21.02869        19.29084         0.17540
C         22.20513        18.60365         0.14302
O          3.00390        14.49953        -2.01213
O          7.30796         5.01270         2.25142
O          6.32379        10.96841        -1.43911
O          9.26526         8.29581         2.23861
O         14.61473        14.60605        -1.76978
O          5.90086         6.01563        -1.05071
O          9.05499         6.19792        -0.67540
O         10.45447        17.16150        -1.61489
O          9.02241         3.64170        -0.64279
O         12.79472        12.87966         1.18104
O         14.54014         4.02008        -1.38242
O          9.85684         9.46735        -1.23731
O          3.23930         2.82374         1.30352
O         19.12588         8.87950        -1.50360
O          6.75867        14.28431         1.71388
O         16.69781         5.08627        -2.32934
O         18.24972        12.17297        -0.87195
O         10.01860        14.41838        -1.62882
O         20.89174         9.88197         1.56554
O         12.96852        16.39608         1.11135
O          4.72454        12.65384        -2.35472
H          5.23152        11.84338        -2.60469
O          9.04292        15.19452         1.76890
H          8.25001        14.85784         2.28844
O         17.61244        17.36409        -1.34300
H         17.90583        16.51451        -1.73979
O          5.42501         3.55838        -1.35591
H          6.09165         4.21165        -1.67468
O         15.99220        10.88638         2.38894
H         16.91161        11.09778         2.69087
O         20.02222        12.87647         2.32685
H         19.92185        11.96836         2.69539
O         19.67584        14.26440        -1.07088
H         20.29884        13.61702        -1.46317
O          7.29141        17.08801         1.80016
H          6.99054        16.16535         2.03909
O         12.39894        13.80942        -2.35725
H         11.58839        13.28328        -2.56570
O          3.78798        10.27547        -1.78504
H          3.13416        10.77084        -2.32187
O         18.31886         6.89916        -2.74299
H         17.53547         7.45450        -2.94314
O         15.78653        16.41689         1.76949
H         16.35270        15.74195         2.21231
O          5.29579         3.55717         2.30725
H          5.85979         4.15538         2.85182
O          4.94629        18.78863         1.43311
H          5.72031        18.26897         1.76333
O         13.96424         3.30773         2.21446
H         13.81776         4.19355         2.62751
O         15.20795         8.30574         2.31526
H         15.58831         9.17786         2.61942
O         19.38873         4.39691        -3.10049
H         18.70803         5.09157        -3.29182
O         15.61581         5.63005         1.69813
H         15.55123         6.51567         2.14049
O          3.40483         7.50834         1.80327
H          3.53835         8.39511         2.21551
O         18.39004        14.86192         2.32562
H         19.08999        15.44080         2.72219
O          6.12596        19.10612        -2.04533
H          6.49812        18.22515        -2.26444
O          3.55928        12.55654         1.13665
H          3.98344        11.85046         1.68491
O         14.86637         6.77282        -1.73178
H         14.81474         5.91343        -2.21796
O         18.60722        10.58714         2.45518
H         18.88102         9.70078         2.77452
O          2.56715         4.13590        -2.05303
H          2.95683         5.01941        -2.27624
O         12.34560         8.58778         2.58312
H         13.25370         8.88086         2.83047
O         10.80651        11.79283        -1.76357
H         10.35713        10.89474        -1.88436
O          2.24617         5.19846         1.43145
H          2.35933         6.04373         1.92764
O         15.07424        17.17947        -1.78382
H         15.96584        17.55760        -1.97726
O         21.38004         7.36021         1.09548
H         21.54110         8.21292         1.57171
O          4.56963        10.20812         1.79684
H          5.38178         9.85293         2.26057
O         11.42515         1.93825         2.50715
H         12.32453         2.33691         2.62836
O         12.39405         5.64530         2.55978
H         12.33542         6.59688         2.83745
O          3.48398         6.59074        -1.75613
H          4.39413         6.83863        -2.04706
O          6.80566         8.81055         2.46776
H          7.66176         8.93272         2.95252
O         17.34220        18.42626         2.18934
H         16.55162        17.87373         2.42869
O         19.78150        17.22372         2.43474
H         18.97648        17.77011         2.65091
O          8.06217        16.17846        -1.65882
H          8.85914        15.88685        -2.16927
O          9.79563        18.26015         1.84566
H          8.97343        17.74835         2.05984
O         10.15329        12.75843         1.70534
H          9.86641        13.63153         2.07319
H          0.26854         1.25258        -0.48867
H          0.14986         3.68320        -0.64525
H          2.44390         0.05133        -0.41583
H          0.12924         5.79375        -0.51819
H          0.14355         8.19509        -0.44762
H          0.11010        10.09703         0.15767
H          0.02997        12.46445        -0.35246
H          0.02543        14.69981        -0.48846
H          0.34847        17.04273        -0.84798
H          1.54510        19.07877        -1.06482
H          4.99320         0.13816         0.12647
H          3.50782        20.34225        -0.36700
H          7.31282         0.15119         0.79284
H          6.13036        20.35904        -0.39794
H          9.80074         0.18221         1.01580
H          8.64525        20.29771        -0.30741
H         12.19552         0.29717         0.01674
H         11.13652        20.31555         0.22193
H         14.65069         0.26407        -0.32061
H         13.57081        20.30722         0.29345
H         17.10533         0.33645        -0.74455
H         15.95321        20.31723         0.61595
H         19.44501         0.33559        -1.19301
H         18.56013        20.33435         0.06565
H         21.62201         1.52186        -1.33921
H         22.89883         3.58709        -1.13619
H         22.95525         6.02932        -0.73982
H         22.81889         8.12138        -1.53265
H         22.89346        10.50894        -1.07455
H         23.24311        12.33059         0.05966
H         23.27101        14.73117         0.57292
H         23.19104        16.66753         0.08376
H         21.00457        20.37030        -0.03460
H         23.14476        19.12688        -0.08246
