         280
 CSIRO Nanostructure Databank - Neutral Graphene Oxide Data Set
C         30.38085        31.64043         0.84302
C         30.43388        32.88978         1.00781
C         30.50230        36.02915         1.22313
C         30.44218        37.29376         1.25000
C         30.41322        40.37274         0.76401
C         30.50841        41.56970         1.14089
C         32.72849        28.68490         0.50130
C         31.67822        29.39478         0.61264
C         32.77348        31.48529         1.30024
C         31.43682        30.73437         0.86986
C         32.80485        32.98466         1.00070
C         31.58126        33.73946         1.09105
C         32.88364        35.90747         1.40451
C         31.57188        35.12891         1.24244
C         32.78865        37.33694         0.84997
C         31.60055        38.03737         0.78878
C         32.78107        40.21464         1.04229
C         31.58023        39.47162         0.31372
C         32.88174        41.72436         0.68818
C         31.61507        42.39031         1.39852
C         33.09307        44.18112         2.18668
C         32.00714        43.54038         2.05967
C         35.41108        27.33844        -0.37485
C         35.24419        28.69423        -0.09025
C         33.94755        29.44467        -0.02994
C         35.32643        31.48903         0.67614
C         34.04499        30.73003         0.83080
C         35.31718        32.97614         0.65829
C         34.04355        33.70236         0.85270
C         35.39504        35.81696         0.87739
C         34.05675        35.10588         0.88580
C         35.35396        37.31363         0.59979
C         34.04873        38.03551         0.38006
C         35.40621        40.19763         0.84648
C         34.10659        39.46189         0.90471
C         35.39232        41.68259         0.79295
C         34.23006        42.36902         0.99641
C         35.50935        44.60415         1.06455
C         34.25277        43.85450         1.31073
C         36.06268        45.84990         1.62330
C         37.79219        27.27887        -0.66274
C         36.49527        26.72767        -0.59810
C         37.76648        28.68101        -0.34642
C         36.51369        29.39297        -0.08691
C         37.80432        31.49621         0.43319
C         36.51490        30.78327         0.13996
C         37.74062        32.97370         0.10736
C         36.47272        33.64569         0.29221
C         37.70739        35.85646        -0.10801
C         36.38287        35.11990        -0.05051
C         37.72121        37.23850        -0.00002
C         36.53675        37.97888         0.39101
C         37.82073        40.15082        -0.09501
C         36.73414        39.45456         0.69180
C         37.72860        41.62410        -0.26663
C         36.77343        42.34816         0.72209
C         37.82608        44.56106        -0.23037
C         36.64322        43.83563         0.34723
C         38.12232        45.95311         0.26097
C         37.06178        46.39382         1.11965
C         40.19823        24.60052        -1.40982
C         39.09032        25.20741        -1.37912
C         40.20780        27.33921        -1.10530
C         39.00317        26.61880        -1.03706
C         40.23626        28.72208        -0.71652
C         39.01320        29.38248        -0.33787
C         40.20734        31.50264        -0.18426
C         39.02196        30.78821        -0.09190
C         40.20135        32.98561        -0.45103
C         38.89500        33.67383        -0.16838
C         40.16162        35.78429        -0.29301
C         38.92678        35.11939        -0.27747
C         40.20726        37.22524        -0.53091
C         38.90952        37.98626        -0.42717
C         40.22507        40.10980        -0.79302
C         38.96886        39.46793        -0.37734
C         40.14359        41.51768        -1.35552
C         38.88594        42.31871        -0.93354
C         40.34782        44.48612        -0.83512
C         38.97609        43.85982        -0.99193
C         40.44145        45.85071        -0.59568
C         39.36750        46.51818         0.12439
C         40.64933        49.03418        -1.03176
C         39.73104        49.89048        -1.16903
C         42.83931        24.64354        -1.43508
C         41.54455        24.88882        -1.48352
C         42.74521        27.34754        -1.02775
C         41.48674        26.78232        -1.68610
C         42.76306        28.87223        -1.25600
C         41.46213        29.45522        -0.69232
C         42.69916        31.61544        -0.42509
C         41.42927        30.80911        -0.36465
C         42.58641        32.90136         0.47430
C         41.40792        33.73362         0.06064
C         42.65413        35.88070         0.02245
C         41.40989        35.10569        -0.02316
C         42.71451        37.21513        -0.28181
C         41.44077        38.02500        -0.14658
C         42.72641        40.05930        -1.00901
C         41.41264        39.41599        -0.75062
C         42.72174        41.54738        -1.27422
C         41.43536        42.30131        -1.21459
C         42.68635        44.34229        -1.88574
C         41.48634        43.68115        -1.21456
C         42.71905        45.89505        -1.79594
C         41.57949        46.64634        -1.14625
C         43.07619        48.48105        -1.03585
C         41.68634        48.15465        -0.95165
C         43.97720        25.31094        -1.53946
C         45.30410        27.51463        -1.59655
C         44.07009        26.66611        -1.42794
C         45.23759        28.81278        -0.74897
C         44.03752        29.44197        -0.63692
C         45.10336        31.51880         0.42185
C         43.89482        30.77924        -0.00371
C         45.08177        33.01124         0.54334
C         43.88637        33.67769         0.52285
C         45.16760        35.80428         0.34233
C         43.81176        35.18603         0.71467
C         45.18021        37.31862         0.24888
C         44.03849        37.91728        -0.55222
C         45.17903        40.17977        -0.37355
C         43.97699        39.43436        -0.50907
C         45.21715        41.57233        -0.57477
C         43.92485        42.34372        -0.79117
C         45.35913        44.36144        -1.57223
C         44.04511        43.63927        -1.60497
C         45.16509        45.87690        -1.22588
C         44.12059        46.53585        -2.12027
C         43.97808        47.98807        -1.73861
C         47.59487        27.45857        -0.75252
C         46.61511        26.83213        -1.19445
C         47.84672        28.78447        -0.32344
C         46.44375        29.36308         0.05207
C         47.42671        31.54933         0.97395
C         46.43331        30.91238        -0.00059
C         47.55214        33.02797         0.85786
C         46.36224        33.69776         0.75134
C         47.58636        35.89710         1.06023
C         46.28436        35.14850         1.16598
C         47.43680        37.40441         1.28563
C         46.30338        38.03017         0.47855
C         47.63953        40.19034         0.39939
C         46.48742        39.38672        -0.19327
C         47.72764        41.61066        -0.04771
C         46.44762        42.42531        -0.25134
C         47.95863        44.43507        -0.95516
C         46.68574        43.54256        -1.31021
C         47.58529        45.84728        -0.90165
C         46.54507        46.42734        -1.20940
C         50.41217        29.00920        -0.15332
C         49.05913        29.44256        -0.19788
C         50.31646        31.59468         0.78123
C         49.28816        30.96170        -0.17393
C         50.15843        33.02075         1.25791
C         48.76731        33.73682         1.45042
C         50.02227        35.98630         1.34620
C         48.76344        35.22136         1.11750
C         49.89331        37.40642         0.92825
C         48.73947        38.10837         1.02848
C         49.86669        40.35859         1.59062
C         48.76452        39.55787         0.85554
C         50.16801        41.71288         0.89344
C         49.03084        42.33769         0.10530
C         50.06689        44.55479         0.63223
C         49.11630        43.83683        -0.24017
C         51.49240        29.64437         0.06842
C         52.67145        31.84113         0.98962
C         51.68345        30.94062         0.56741
C         52.60302        32.99340         1.51477
C         51.45159        33.90013         1.10068
C         52.46397        36.27769         1.57860
C         51.34487        35.31164         1.65019
C         52.59479        37.50238         1.74375
C         51.76265        38.60844         1.33404
C         51.96294        40.70665         2.73656
C         51.26519        39.72623         1.92795
C         51.87728        41.94679         2.70456
C         50.80525        42.86286         2.30370
C         50.86964        44.01723         1.42115
O         49.06233        31.61467        -1.18658
O         47.85016        30.95510         1.96243
O         50.94007        38.09426         0.29043
O         50.18636        31.90177         2.19527
O         42.80074        31.90254        -1.80459
O         34.84053        39.66445         2.12772
O         44.83844        43.81467        -2.81178
O         34.36199        44.73484         0.16752
O         40.08428        41.34865        -2.86357
O         50.48339        35.66565         2.74556
O         48.73024        41.62973        -1.13456
O         41.68074        46.47067        -2.62332
O         34.97319        30.70590         1.93890
O         39.48046        37.58351        -1.74332
O         37.36752        42.22886         1.98620
O         44.31385        30.80756         1.43340
O         49.15489        44.07808        -1.66397
O         42.91575        40.64254        -2.37508
O         37.66364        41.95348        -1.67753
O         36.60929        44.28237        -1.02901
O         33.95756        38.17281        -1.07172
H         34.08729        37.28688        -1.47428
O         33.14200        36.07530         2.84668
H         32.39819        36.59885         3.21834
O         38.74710        44.19612        -2.38344
H         37.95293        43.68933        -2.67190
O         37.90252        31.44219         1.90073
H         37.83349        30.50492         2.18134
O         49.20192        40.58365         2.84740
H         49.86170        40.84073         3.52853
O         44.35107        37.64537        -1.96853
H         45.19996        38.11677        -2.16615
O         43.50998        42.83563         0.52607
H         44.29156        43.27519         0.93900
O         39.66579        47.65155         0.79957
H         38.84596        48.02911         1.18159
O         46.26047        28.91707         1.40266
H         45.46992        29.38003         1.77395
O         32.68682        41.91577        -0.72055
H         33.00973        42.80878        -0.97400
O         41.32982        38.25165         1.30122
H         41.56725        37.42013         1.76811
O         35.89589        35.67218         2.23143
H         35.19406        35.99405         2.84358
O         35.81306        35.20640        -1.39247
H         36.50567        34.94102        -2.03476
O         46.87853        39.04436        -1.56786
H         47.25289        39.85127        -1.98763
O         51.25602        41.53811         0.04718
H         51.24870        42.21665        -0.65947
O         43.46350        35.43935         2.09890
H         44.23630        35.19420         2.66513
O         44.41918        46.34632        -3.47442
H         43.66648        46.68282        -4.00632
O         33.64357        29.89022        -1.35729
H         33.59840        29.11009        -1.94938
O         46.52365        31.36087        -1.35431
H         47.45112        31.34819        -1.69018
O         39.11558        40.32718        -3.15909
H         39.63820        39.48515        -3.13880
O         44.62780        45.91856         0.10089
H         45.35419        45.81505         0.75080
O         42.40383        44.06291        -3.27248
H         43.23076        44.20270        -3.78700
O         31.65605        39.49064        -1.07641
H         31.86549        40.40136        -1.38842
O         40.36991        33.05360        -1.91170
H         41.29182        32.68503        -2.10190
O         51.56259        34.09044        -0.31913
H         52.35800        34.63293        -0.50796
O         42.61027        27.18978         0.40022
H         42.78526        26.25139         0.62682
O         41.52403        26.89186        -3.05352
H         40.62716        26.79396        -3.43198
O         42.26307        32.45523         1.81562
H         42.98908        31.85559         2.11747
O         46.20214        43.12384         1.01569
H         46.14168        42.44918         1.72765
O         46.99610        42.84893        -2.50412
H         47.12694        43.49076        -3.23182
O         37.32683        39.49836         2.03088
H         37.40425        40.47555         2.26327
O         45.46601        35.37930        -1.01375
H         44.94914        35.94681        -1.64161
O         45.42542        27.90862        -2.95290
H         45.08980        27.19289        -3.53102
O         42.77116        29.20941        -2.64918
H         42.83612        30.20616        -2.67850
O         32.43292        40.14564         2.43543
H         33.27752        40.12374         2.94882
O         45.99243        35.09867         2.59108
H         46.76021        34.63860         3.01614
O         48.51835        33.70618         2.88541
H         48.68964        32.77763         3.17775
O         49.89233        43.05757         3.32580
H         49.39758        43.88946         3.18600
O         47.07061        37.57476         2.67819
H         47.75610        37.14801         3.23415
O         32.71662        31.40961         2.73652
H         33.62999        31.20462         3.05532
