         300
 CSIRO Nanostructure Databank - Neutral Graphene Oxide Data Set
C         30.17338        31.58639         0.68849
C         30.24141        32.82383         0.64042
C         30.11440        36.17599         0.78327
C         30.30298        37.38721         0.60116
C         30.33760        40.67856        -0.16120
C         30.37248        41.90414        -0.31403
C         32.60486        28.80131         1.43782
C         31.52031        29.37209         1.22452
C         32.53845        31.61392         1.43365
C         31.21977        30.79407         1.36659
C         32.55312        33.14924         1.27522
C         31.20299        33.82327         0.97498
C         32.90090        36.17094         0.87299
C         30.97733        35.13450         1.29285
C         32.72094        37.54679         0.30054
C         31.39849        38.26743         0.15645
C         32.75523        40.55804         0.22891
C         31.41469        39.77190         0.25606
C         32.81710        42.02386        -0.17602
C         31.49203        42.83791        -0.37131
C         32.84767        44.44431        -1.49338
C         31.70854        43.99616        -1.24874
C         35.33331        27.23054         0.70617
C         35.22270        28.66523         1.33835
C         33.90961        29.37003         0.95195
C         35.17101        31.61704         1.29685
C         33.87757        30.86231         1.43090
C         35.13319        33.05367         0.83079
C         33.88506        33.89389         1.04397
C         35.14164        35.94580        -0.06761
C         33.90218        35.31410         0.50219
C         35.15995        37.47840        -0.32955
C         34.02266        38.28578         0.29551
C         35.30800        40.41322        -0.35972
C         34.05532        39.77182         0.17931
C         35.37471        41.94086        -0.32792
C         34.05128        42.39334        -1.03597
C         35.30886        44.20219        -2.18778
C         34.13702        43.84557        -1.58187
C         35.86228        45.44042        -2.68149
C         37.82610        27.18965         0.70519
C         36.51504        26.76450         0.63293
C         37.84192        28.71233         0.97777
C         36.47354        29.40712         0.67912
C         37.79829        31.62649         0.84652
C         36.50495        30.88903         1.09217
C         37.77260        33.09201         0.57699
C         36.42475        33.73867         0.47282
C         37.65805        35.94004         0.74008
C         36.43167        35.22504         0.18026
C         37.71093        37.44977         0.49647
C         36.46925        38.18095         0.07660
C         37.86564        40.35486        -0.08866
C         36.56864        39.61429        -0.39247
C         37.94668        41.73178        -0.78132
C         36.61594        42.34577        -1.13043
C         38.48569        44.24223        -2.60893
C         36.44367        43.25754        -2.12290
C         38.35245        45.73167        -2.81051
C         36.91505        46.01673        -2.96155
C         40.36442        24.41844         0.56252
C         39.28282        25.02533         0.71509
C         40.40482        27.23437         0.54048
C         39.08533        26.46785         0.87009
C         40.34351        28.68220         0.20805
C         38.98044        29.39233         0.15523
C         40.15329        31.59946        -0.26438
C         39.13031        30.87570         0.60649
C         40.18021        33.14061        -0.27501
C         38.90973        33.78088         0.28125
C         40.19123        35.89643         0.85400
C         38.91841        35.29183         0.16080
C         40.22452        37.39061         0.51322
C         39.03227        38.09621         0.29807
C         40.40321        40.02714        -0.74224
C         39.08106        39.45649        -0.31234
C         40.58602        41.47295        -1.24420
C         39.28232        42.28781        -1.22122
C         40.52740        44.40626        -1.23730
C         39.45359        43.61842        -1.91071
C         40.42255        45.89771        -1.23514
C         39.38440        46.59069        -2.13107
C         40.39328        48.60053        -1.23838
C         39.42689        48.01639        -1.75313
C         42.93710        24.40492        -0.14139
C         41.49487        24.68524        -0.31739
C         42.68649        27.16489        -0.70249
C         41.71317        26.50368         0.28067
C         42.64762        28.69649        -0.87679
C         41.45403        29.35782        -0.19451
C         42.74608        31.50969        -0.01828
C         41.42617        30.84119        -0.43409
C         42.75636        33.06670        -0.15221
C         41.47080        33.69608         0.46093
C         42.72911        35.84519         0.92586
C         41.48521        35.23699         0.29465
C         42.65038        37.36206         1.05910
C         41.47991        37.99071         0.34398
C         42.68698        40.20418         0.36799
C         41.69870        39.29722        -0.38248
C         42.78859        41.63503         0.00394
C         41.72788        42.24734        -0.58776
C         42.77558        44.50807        -0.12707
C         41.88930        43.70596        -1.06734
C         42.45338        45.80563         0.14373
C         41.55616        46.66700        -0.62823
C         42.71593        48.64893         0.04417
C         41.56990        48.06631        -0.58987
C         43.94151        25.03949        -0.49702
C         45.18299        27.21565        -1.41943
C         43.96687        26.43005        -1.01262
C         45.19671        28.73685        -1.25582
C         44.02422        29.34708        -0.47420
C         45.28830        31.57877        -0.27205
C         43.98478        30.89687        -0.73178
C         45.31081        33.12576        -0.29017
C         44.07385        33.62538         0.50573
C         45.27785        35.97835         0.58610
C         44.05114        35.15627         0.75400
C         45.21106        37.38247         0.65012
C         43.96347        38.03216         0.78741
C         45.27863        40.12412         0.92912
C         43.92487        39.47617         0.89370
C         45.17317        41.64298         1.01717
C         44.12349        42.38329         0.15581
C         45.22942        44.65393         0.76646
C         43.85842        43.83472         0.72656
C         45.30676        46.18799         0.86465
C         44.21382        46.98947         1.00606
C         43.81510        48.27628         0.49794
C         47.50573        27.44515        -1.45587
C         46.53662        26.61613        -1.51415
C         47.81539        28.75804        -1.25377
C         46.50047        29.58895        -1.40299
C         47.88571        31.61281        -0.49660
C         46.56829        30.84576        -0.51587
C         47.89620        33.08114        -0.16309
C         46.60117        33.76193         0.24217
C         47.75634        36.08932         0.04851
C         46.57104        35.25643         0.47406
C         47.70219        37.59820         0.16696
C         46.42684        38.33550         0.66774
C         47.17531        40.32593         2.57241
C         46.18984        39.32103         1.92664
C         47.57883        41.64949         1.90414
C         46.35911        42.42852         1.51862
C         47.95730        44.49875         1.23156
C         46.50340        43.87359         1.06832
C         47.70933        45.98679         1.30092
C         46.69069        46.55441         0.88281
C         50.37044        28.96594        -1.53748
C         49.09455        29.43152        -0.86672
C         50.38918        31.70101        -0.92340
C         49.06296        30.97765        -1.24479
C         50.34391        33.22119        -0.94903
C         49.06521        33.93353        -0.60027
C         50.35004        36.17854        -0.47943
C         49.10289        35.39196        -0.15480
C         50.32528        37.70529        -0.44367
C         49.03575        38.32878         0.08650
C         49.93247        40.51697         0.90471
C         49.24865        39.37047         1.10848
C         50.11908        41.59384         1.95329
C         48.76534        42.31158         2.09408
C         50.06962        44.24379         2.66082
C         48.64771        43.84330         2.42468
C         51.41905        29.59766        -1.68025
C         52.74318        31.93093        -1.60962
C         51.69643        30.97146        -1.25741
C         52.68911        33.15107        -1.45184
C         51.68381        33.99088        -0.70500
C         52.74510        36.26689        -0.58138
C         51.59213        35.45116        -1.12879
C         52.68494        37.43341        -0.18959
C         51.64538        38.41723        -0.14902
C         52.63963        40.65616         0.66415
C         51.75607        39.77732        -0.06815
C         52.52539        41.64969         1.39617
C         51.32777        42.56421         1.52168
C         51.16693        43.69735         2.50497
O         45.95173        30.86372         0.79378
O         46.05447        39.50837        -0.19701
O         39.56405        39.31237        -1.69737
O         39.43893        46.32459        -3.55490
O         39.88509        45.08975        -0.10905
O         34.32546        39.07651         1.45604
O         48.27997        32.06838         0.82363
O         32.27466        42.92532         0.82293
O         40.22856        33.55463        -1.62386
O         46.69716        34.28665         1.58909
O         38.76989        42.57650         0.12251
O         43.36126        35.30956         2.08869
O         35.94290        35.39937        -1.17525
O         50.60438        40.58141        -0.34893
O         42.45916        43.49304        -2.33850
O         47.40304        36.92251        -1.08857
O         37.34705        31.27643         2.21103
O         47.22212        40.34725         3.79861
O         33.30965        33.74059         2.36574
O         49.47172        33.73686        -1.99618
O         35.87765        39.91550        -1.62108
O         46.10163        44.16579        -0.29859
O         49.46480        38.49835        -1.28823
O         40.56527        31.12087        -1.58784
O         32.04499        37.67222        -1.00313
O         51.25059        31.15664         0.13238
O         32.05842        35.79680         1.92940
O         42.87009        26.51337        -1.99985
O         39.94800        27.01646         1.93292
O         42.86978        39.97431         1.77385
O         32.02467        40.27991         1.45756
O         44.86965        28.11311        -2.52955
O         43.02175        46.30187         1.33919
O         45.22581        42.10786         2.38592
O         35.59911        33.05205        -0.54773
O         50.08180        35.66862         0.87320
O         34.64838        31.23165         2.59823
O         36.81740        38.09880         1.48621
O         31.69141        31.30683         2.60579
O         37.42586        43.46135        -3.10193
O         44.26097        28.98829         0.88660
H         43.88318        29.69426         1.47077
O         42.81823        31.10618         1.36314
H         42.30622        31.75534         1.90985
O         41.61873        35.64237        -1.06719
H         41.05251        35.02468        -1.61847
O         51.98978        33.91309         0.66418
H         52.05196        32.96639         0.92390
O         45.53632        38.65186         2.97239
H         45.84413        39.06842         3.81600
O         39.80928        30.85006         1.88438
H         39.11551        30.74435         2.58035
O         49.25065        29.29199         0.52569
H         50.05891        29.78718         0.80353
O         35.39927        42.42593         1.00708
H         36.15738        42.00902         1.47674
O         45.33686        33.54532        -1.65883
H         44.49278        33.25224        -2.09223
O         44.64353        42.41536        -1.17172
H         43.96395        42.83359        -1.78077
O         47.80592        43.99943         3.54565
H         48.16077        43.49761         4.30719
O         38.64406        29.29978        -1.22809
H         39.29384        29.84731        -1.73944
O         44.21415        33.03266         1.80060
H         45.01669        33.40969         2.22859
O         41.11857        24.58127        -1.62519
H         41.86831        24.84081        -2.20859
O         42.36095        37.60375         2.46684
H         42.86113        36.92435         2.97916
O         42.79073        33.37928        -1.54105
H         41.86196        33.26146        -1.90978
O         48.88248        31.07872        -2.65469
H         48.90093        32.03053        -2.90982
O         50.48416        40.94837         3.18985
H         50.70298        41.64120         3.85038
O         34.95170        37.62358        -1.73764
H         35.45920        36.91795        -2.20021
O         38.07713        28.83119         2.38794
H         38.89855        28.31789         2.60444
O         46.50748        30.09376        -2.73982
H         46.09447        29.41930        -3.32636
O         51.07439        43.06464         0.24851
H         51.76774        43.70412        -0.00921
O         43.90525        31.11404        -2.14064
H         43.15275        30.57753        -2.49920
O         36.31335        29.37018        -0.73417
H         35.44467        29.76428        -0.98703
O         33.86077        41.55446        -2.19178
H         34.69170        41.49860        -2.71235
O         40.97503        41.33370        -2.62464
H         41.57476        42.10987        -2.84437
O         43.33834        43.68988         2.04711
H         43.00531        44.56687         2.34214
O         35.32465        28.57875         2.71426
H         36.27073        28.48113         2.97700
O         48.67330        44.17484         0.07040
H         48.10473        44.38663        -0.70384
O         38.88604        35.69887        -1.21549
H         39.20328        34.91809        -1.75543
O         42.37496        28.96503        -2.26802
H         42.75031        28.21339        -2.79250
O         42.39845        26.37296         1.49145
H         41.74012        26.30939         2.22061
O         40.18469        35.66447         2.26899
H         39.25790        35.78095         2.60577
O         51.53864        35.51887        -2.52814
H         51.55621        36.45256        -2.82188
O         37.56933        35.72812         2.17086
H         37.06481        36.49203         2.54394
O         37.79503        40.61854         1.33307
H         38.40686        41.37161         1.52005
O         33.78418        29.43582        -0.47674
H         33.70384        28.51760        -0.81747
O         42.37930        38.96054        -1.61590
H         41.69571        38.78545        -2.30076
O         41.40694        33.34584         1.83801
H         40.97568        34.08592         2.34172
O         48.83666        38.98164         2.36660
H         49.35943        39.49726         3.03607
