         651
 CSIRO Nanostructure Databank - Neutral Graphene Oxide Data Set
C          5.84756        31.77075         1.22705
C          5.84609        33.11636         1.34242
C          8.27071        27.42569         0.71070
C          8.26242        28.84780         0.72364
C          7.07866        29.60377         0.99464
C          8.29122        31.72789         0.83488
C          7.07243        30.99994         1.03517
C          8.32168        33.17149         0.94484
C          7.11276        33.93334         1.44846
C          8.32411        36.10110         0.84487
C          7.01578        35.32370         0.77257
C          8.36148        37.46376         0.62596
C         10.67031        23.11629         0.34538
C         10.68476        24.50994         0.28134
C          9.46801        25.27321         0.40565
C         10.61329        27.39714        -0.13936
C          9.42138        26.67323         0.37033
C         10.69115        28.86361         0.07370
C          9.47324        29.57176         0.46876
C         10.70388        31.70131         0.24699
C          9.45818        30.97847         0.54320
C         10.70811        33.19307         0.33787
C          9.48348        33.90374         0.73896
C         10.78974        36.03112         0.81597
C          9.56178        35.34759         0.87021
C         10.83141        37.50921         1.13287
C          9.59149        38.21807         0.62470
C         10.81332        40.39606         0.34772
C          9.63927        39.55301         0.28140
C         10.66460        41.71779        -0.06668
C         13.26181        18.76373         0.20477
C         13.22017        20.14857         0.26442
C         11.85847        20.82816         0.31897
C         13.21727        23.09112         0.47716
C         11.89516        22.33841         0.54937
C         13.17643        24.53911         0.17457
C         11.95363        25.19869         0.10745
C         13.20827        27.35285        -0.43397
C         11.90940        26.61330        -0.31673
C         13.17663        28.86320        -0.33742
C         11.89200        29.52317        -0.03073
C         13.17487        31.69630        -0.16188
C         11.99451        30.93844         0.47657
C         13.25334        33.10838         0.38191
C         12.00765        33.88167         0.57836
C         13.19301        36.04448         0.26538
C         12.02051        35.35957         0.56213
C         13.22844        37.49989         0.32745
C         12.10546        38.22217         0.72044
C         13.36508        40.36966         0.41392
C         12.09281        39.73763         0.94511
C         13.50291        41.71411         0.39840
C         11.63762        42.78899         0.08638
C         13.21976        44.65140        -0.46065
C         11.90558        43.95509        -0.57898
C         13.25053        46.08107        -0.37900
C         15.77224        14.47041        -0.06706
C         15.73875        15.86205        -0.07610
C         14.50966        16.59533         0.09873
C         15.72893        18.71021         0.06359
C         14.47871        17.98880         0.09599
C         15.68686        20.18593        -0.06038
C         14.42816        20.92839         0.16153
C         15.67934        23.08331         0.07100
C         14.45702        22.32846         0.18928
C         15.65321        24.50015         0.03456
C         14.43775        25.23404         0.01365
C         15.68063        27.39084        -0.04452
C         14.47572        26.65442        -0.13431
C         15.66583        28.84028         0.02444
C         14.44805        29.56215        -0.02258
C         15.67679        31.67847         0.14892
C         14.46881        30.95906         0.04735
C         15.66990        33.13699        -0.00110
C         14.50193        33.83729         0.09587
C         15.70921        36.01293        -0.40443
C         14.39891        35.28605        -0.17386
C         15.69022        37.46053        -0.17566
C         14.51848        38.13196         0.07896
C         15.67658        40.21322        -0.60922
C         14.65049        39.59967         0.34822
C         15.75120        41.71043        -0.48713
C         14.43001        42.41909        -0.57008
C         15.67675        44.62694        -0.84322
C         14.43050        43.93051        -0.47987
C         15.68656        46.14921        -0.76823
C         14.44052        46.82830        -0.36067
C         15.73687        48.92268        -0.05351
C         14.51126        48.21812        -0.08419
C         15.76928        50.33750         0.13091
C         18.48603        10.26044        -0.66882
C         18.43884        11.64427        -0.56282
C         17.18487        12.28090         0.02424
C         18.25710        14.53436        -0.62187
C         16.98816        13.72794        -0.41099
C         18.20132        15.97697        -0.39470
C         16.98458        16.61619        -0.18090
C         18.22128        18.72623         0.42269
C         16.93604        18.04788         0.01200
C         18.22609        20.23142         0.36805
C         16.97904        20.94417         0.03264
C         18.13492        23.07340         0.40852
C         16.94531        22.40632         0.18563
C         18.23774        24.49750         0.11681
C         16.91804        25.23874        -0.12754
C         18.16817        27.36293         0.11285
C         16.93998        26.70057         0.03198
C         18.15789        28.83952         0.06519
C         16.87635        29.56233         0.19940
C         18.09227        31.78314         0.74072
C         16.88875        30.96404         0.29314
C         18.22950        33.07072        -0.07118
C         16.94266        33.82121        -0.33593
C         18.19135        35.97519        -0.09364
C         16.99206        35.29143        -0.30266
C         18.21824        37.41877         0.00793
C         16.97812        38.15642        -0.15625
C         18.18626        40.29534        -0.01172
C         16.98582        39.51965        -0.31611
C         18.28669        41.66870        -0.58547
C         16.99053        42.38592        -0.82293
C         18.28092        44.58715        -0.65378
C         16.99691        43.88316        -0.91569
C         18.23981        46.06049        -0.77626
C         16.97592        46.83535        -0.57322
C         18.24640        48.87434         0.04806
C         16.97772        48.16657        -0.22699
C         18.23492        50.35541         0.26734
C         16.95837        51.10152         0.20382
C         18.28510        53.20531         0.36536
C         17.03376        52.50176         0.30931
C         18.37268        54.59389         0.50115
C         21.06450         6.12217        -1.70375
C         20.96104         7.55836        -1.58106
C         19.77167         8.19268        -1.19318
C         20.71670        10.42352        -1.66605
C         19.65104         9.61265        -1.15913
C         20.76266        11.84469        -1.40709
C         19.60393        12.41972        -0.84355
C         20.78971        14.66444        -0.70758
C         19.57881        13.84642        -0.33894
C         20.76401        16.04088        -0.68720
C         19.46142        16.73760        -0.59064
C         20.71222        18.98926        -0.15370
C         19.43669        18.20578        -0.32158
C         20.66929        20.13186         0.87595
C         19.36931        20.89597         0.67002
C         20.61352        23.11302         1.10183
C         19.33613        22.35619         0.87505
C         20.63913        24.56929         0.82251
C         19.45761        25.25216         0.46033
C         20.65211        27.37349         0.48219
C         19.42422        26.66709         0.31445
C         20.68181        28.83003         0.46031
C         19.42430        29.59779         0.26507
C         20.64898        31.75485         0.41685
C         19.42950        30.99563         0.88206
C         20.68548        33.13379         0.25147
C         19.45362        33.86584         0.11323
C         20.68235        35.98215         0.24529
C         19.44659        35.25698         0.04752
C         20.66581        37.37504         0.35715
C         19.43071        38.08901         0.24371
C         20.71879        40.33254         0.37029
C         19.44207        39.56261         0.36647
C         20.73211        41.68135         0.17658
C         19.56944        42.42493        -0.41763
C         20.69995        44.64485        -0.10671
C         19.48859        43.92130        -0.42407
C         20.72668        46.03518        -0.10156
C         19.54691        46.78492        -0.52293
C         20.74173        48.87882        -0.08290
C         19.53816        48.20667        -0.19127
C         20.67043        50.33213        -0.47978
C         19.49730        51.09375         0.06944
C         20.85684        53.13830         0.27620
C         19.52049        52.44678         0.17350
C         20.81882        54.62242         0.07579
C         19.61701        55.32393         0.39572
C         20.91837        57.41513         0.44514
C         19.67594        56.72663         0.52143
C         21.01151        58.82808         0.56230
C         23.45677         3.56165        -2.97174
C         22.29102         4.12533        -2.47284
C         23.51723         6.29854        -2.09163
C         22.23004         5.50647        -2.12482
C         23.33494         7.75442        -2.48906
C         22.02369         8.36266        -2.11792
C         23.55530        10.87350        -2.40470
C         21.74427         9.70584        -2.34277
C         23.33320        12.05039        -1.68336
C         22.02744        12.62880        -1.39330
C         23.22318        14.61992        -0.27833
C         22.02161        13.93104        -0.88877
C         23.32264        16.10020        -0.59897
C         22.02583        16.85291        -0.80708
C         23.27826        19.01274         0.00682
C         22.00949        18.32628        -0.45454
C         23.17598        20.34194         0.68157
C         21.92466        20.99347         0.82031
C         23.10855        23.09053         1.33358
C         21.90571        22.37292         1.08972
C         23.11668        24.55071         1.28152
C         21.86901        25.26164         0.95082
C         23.10724        27.41851         0.86264
C         21.84259        26.66318         0.76597
C         23.11278        28.78847         0.27829
C         21.85587        29.52950         0.49880
C         23.20295        31.70473         0.34894
C         21.90737        30.99891         0.54224
C         23.19818        33.12121        -0.16482
C         21.92885        33.86261         0.16323
C         23.19424        35.95230         0.39538
C         21.93808        35.24934         0.26961
C         23.20811        37.34950         0.98402
C         21.87676        38.09667         0.85357
C         23.23138        40.32729         1.15990
C         21.89679        39.60373         0.91989
C         23.24972        41.77250         0.67134
C         21.93203        42.45311         0.57964
C         23.16328        44.66711         0.53521
C         21.89889        43.91826         0.38437
C         22.96916        45.98316         0.83162
C         21.88420        46.78812         0.32585
C         23.27843        49.02846         0.21822
C         21.98201        48.17752         0.12460
C         23.18695        50.21214        -0.80615
C         21.97471        51.06529        -0.48082
C         23.11373        53.17013        -1.02757
C         21.97877        52.42312        -0.44722
C         23.16345        54.71149        -0.95586
C         22.03842        55.30121        -0.11123
C         23.45332        57.31895         0.34159
C         22.10629        56.67785         0.14070
C         23.44960        58.80641         0.15748
C         22.24143        59.52524         0.36116
C         23.50102        61.61297         0.16372
C         22.28984        60.94752         0.35176
C         24.63488         4.31690        -3.15546
C         25.88079         6.42734        -2.89683
C         24.69571         5.67171        -2.80294
C         25.96043         7.77762        -2.46470
C         24.65080         8.53942        -2.47935
C         25.56891        10.45477        -1.20522
C         24.63469         9.97902        -2.10335
C         25.83116        11.86169        -1.06130
C         24.56076        12.72598        -1.25582
C         25.74379        14.55911        -0.08328
C         24.53858        13.96638        -0.51769
C         25.69331        15.99791         0.24271
C         24.54842        16.74856        -0.06655
C         25.67991        18.78489         0.87780
C         24.56336        18.20269         0.12823
C         25.54441        20.15312         1.40107
C         24.34782        20.99659         1.12543
C         25.51241        23.05209         2.09271
C         24.31650        22.35915         1.53009
C         25.55597        24.62879         1.92112
C         24.32437        25.23282         1.36517
C         25.66640        27.28321         0.59430
C         24.38146        26.68869         1.09062
C         25.68565        28.71441         0.12107
C         24.40305        29.48822         0.01414
C         25.65744        31.63562         0.18457
C         24.46561        30.95734         0.12637
C         25.66167        33.10506         0.28601
C         24.47538        33.83508         0.21276
C         25.65254        36.02459         0.42625
C         24.41929        35.27355         0.36392
C         25.65462        37.41158         0.34943
C         24.42185        38.17669         0.54779
C         25.75609        40.29116         0.85074
C         24.44159        39.53784         0.69853
C         25.69471        41.78672         0.54426
C         24.43353        42.48313         0.63153
C         25.73820        44.68726         0.31908
C         24.48455        43.99103         0.89968
C         25.80834        46.10149         0.08062
C         24.80582        47.01211         0.51087
C         25.71379        48.86389        -0.64684
C         24.58715        48.26917        -0.03430
C         25.78012        50.36828        -0.57922
C         24.45502        51.01375        -0.81522
C         25.72454        53.15291        -1.22843
C         24.45018        52.38734        -1.21445
C         25.74095        54.55672        -0.98885
C         24.54536        55.28334        -0.66549
C         25.87636        57.32721        -0.38051
C         24.62500        56.61813        -0.30304
C         25.88603        58.73488        -0.20939
C         24.68495        59.48241        -0.01907
C         24.68882        60.90488        -0.01815
C         27.24100         8.35578        -2.27659
C         28.42312        10.49432        -1.41710
C         27.45803         9.48653        -1.42834
C         28.32556        11.76801        -0.73421
C         26.98545        12.31666        -0.19691
C         28.19352        14.45569         0.39525
C         26.95347        13.82948        -0.06224
C         28.14575        15.90656         0.79544
C         26.87939        16.66263         0.67639
C         28.09441        18.65272         1.57922
C         26.84567        18.03705         1.04326
C         28.10440        20.11753         1.94897
C         26.78127        20.82678         1.92443
C         28.00603        22.80191         2.45167
C         26.79072        22.29362         2.09629
C         28.07135        24.93733         2.26284
C         26.83583        25.41566         1.78426
C         28.13258        27.33371         0.92557
C         26.90792        26.65533         1.09539
C         28.21558        28.69053         0.21421
C         26.92811        29.49920         0.24117
C         28.16019        31.64198         0.31400
C         26.91425        30.87834         0.22837
C         28.12014        33.09602         0.26917
C         26.93278        33.79254         0.35303
C         28.11276        35.97119        -0.10450
C         26.96369        35.28603         0.63920
C         28.10359        37.46147         0.13963
C         26.91912        38.13228         0.23002
C         28.16229        40.36798         0.18839
C         26.85356        39.62884         0.03296
C         28.12706        41.75993         0.13501
C         26.86555        42.47681         0.24487
C         28.10293        44.56754        -0.40134
C         26.88628        43.92403         0.04765
C         28.07957        45.91614        -0.79901
C         26.90666        46.69790        -0.62116
C         28.07210        48.81256        -1.34217
C         26.87201        48.11130        -0.91314
C         28.11286        50.18911        -1.46089
C         26.80915        50.94096        -1.55387
C         28.18037        53.08624        -1.38003
C         26.91049        52.43286        -1.37329
C         28.20825        54.47449        -1.19414
C         27.01581        55.22162        -0.96107
C         27.05155        56.61353        -0.70920
C         29.46318        12.55527        -0.61609
C         30.67248        14.58150         0.12572
C         29.49403        13.87169        -0.03404
C         30.72180        15.94812         0.61384
C         29.42049        16.66946         0.66493
C         30.62871        18.77020         1.48559
C         29.39048        18.09726         1.10124
C         30.60061        20.16715         1.72273
C         29.36854        20.85578         1.83897
C         30.52721        23.14073         1.97925
C         29.25619        22.35123         1.73477
C         30.56128        24.56823         1.91427
C         29.33001        25.39129         1.81849
C         30.64131        27.38565         1.10956
C         29.34248        26.67949         1.25130
C         30.56235        28.86076         1.34603
C         29.32658        29.52217         0.82714
C         30.60883        31.68851         0.84098
C         29.33870        30.97586         0.56866
C         30.63244        33.15397         0.59766
C         29.42715        33.79629        -0.04887
C         30.60943        35.94602         0.35761
C         29.43060        35.29024         0.16868
C         30.65791        37.42171         0.51289
C         29.38087        38.17704         0.34586
C         30.61417        40.27695         0.02036
C         29.40825        39.64281         0.12420
C         30.65075        41.78182         0.17505
C         29.35117        42.49288        -0.07375
C         30.63016        44.51995        -0.77191
C         29.36527        43.83605        -0.41648
C         30.58927        45.86105        -1.23005
C         29.28481        46.53854        -1.39261
C         30.55482        48.75611        -1.80255
C         29.27819        48.02864        -1.66651
C         30.57841        50.11703        -1.74639
C         29.36143        50.90540        -1.60578
C         29.38002        52.29171        -1.55650
C         31.87344        16.62726         0.90731
C         33.10664        18.85139         1.30896
C         31.90418        17.98633         1.58652
C         33.07265        20.24038         1.44636
C         31.82693        20.91924         1.66381
C         33.08742        23.12060         1.58543
C         31.75373        22.38371         1.62821
C         33.07564        24.53475         2.03625
C         31.80078        25.24945         1.84228
C         33.15719        27.43574         1.68883
C         31.89575        26.66839         1.49628
C         33.14220        28.84793         1.50834
C         31.85331        29.64902         1.65615
C         33.15445        31.67707         0.93639
C         31.89269        30.88307         0.70606
C         33.20603        33.09104         0.41531
C         31.91980        33.86951         0.46821
C         33.09260        36.01447         0.74774
C         31.89028        35.24527         0.45280
C         33.14802        37.47258         0.60115
C         31.96324        38.12000         0.33899
C         33.12163        40.30377        -0.07096
C         31.88289        39.48086        -0.31430
C         33.00360        41.64360        -0.06766
C         31.80840        42.33124        -0.65061
C         33.05876        44.44973        -1.28644
C         31.87206        43.83074        -0.78627
C         32.97542        45.80807        -1.67407
C         31.77169        46.51470        -1.64485
C         31.76822        47.93639        -2.18342
C         34.31764        21.00046         1.42848
C         35.58640        23.14550         1.60244
C         34.35922        22.36274         1.58972
C         35.61874        24.50531         1.72110
C         34.38986        25.28400         2.02295
C         35.60420        27.44073         1.55889
C         34.37710        26.74926         1.78854
C         35.58029        28.85425         1.34724
C         34.33895        29.56826         1.41498
C         35.63890        31.76392         1.36039
C         34.31404        31.03017         1.23298
C         35.63249        33.25302         1.00553
C         34.38194        33.87106         0.96966
C         36.01335        36.27798         0.89068
C         34.17339        35.26098         1.19171
C         35.76040        37.50053         0.28421
C         34.47795        38.22721         0.54489
C         35.62723        40.26717        -0.62333
C         34.46400        39.68538         0.16159
C         35.63922        41.57720        -1.19654
C         34.74450        42.63097        -0.85877
C         34.30801        43.73772        -1.57736
C         36.94066        25.25196         1.74237
C         37.98246        27.41391         1.01925
C         36.84429        26.73402         1.42211
C         37.96590        28.81656         0.74758
C         36.77001        29.52442         0.94955
C         37.93969        31.67583         0.19906
C         36.70158        30.96765         0.63942
C         38.01486        33.15322         0.29054
C         36.90086        33.92919         0.69249
C         38.06597        35.93062        -0.30610
C         36.99936        35.35384         0.46152
C         37.96646        37.28387        -0.73465
C         36.80674        38.06161        -0.51473
C         36.68972        39.41667        -0.96527
C         39.15469        29.51814         0.31477
C         40.37362        31.58917        -0.30036
C         39.17659        30.87569         0.07944
C         40.36339        32.93725        -0.49937
C         39.19607        33.76408        -0.24016
C         39.20279        35.12113        -0.57339
O         11.02344        26.88284        -1.44779
O         35.16629        35.90362         1.93768
O         18.55763        40.14029         1.40409
O         34.67083        39.28550         1.55419
O         21.60704        43.30166         1.76223
O         15.54023        45.46146        -2.05412
O         19.06508        46.53614        -1.89675
O         23.48705        52.62365        -2.30081
O         12.61396        22.72511         1.77220
O         34.06524        42.43437         0.36256
O         23.93424         8.19743        -3.71979
O         18.27459        49.44593         1.43473
O         29.06038        47.04808        -2.75904
O         25.74107        27.59318        -0.83965
O         19.74247        22.77274         2.24176
O         23.75118        27.44710         2.19372
O         32.34046        22.93889         0.35955
O         17.75022        24.78983        -1.24292
O         12.57920        42.48682         1.10346
O         22.54500        10.41829        -3.24433
O         19.20746        41.78719        -1.70642
O         18.92547        29.44157        -1.08514
O         33.76576        24.84149         3.29146
O         25.29189        23.96069         3.19225
O         19.23260        17.75527        -1.67122
O         26.39644         9.59950        -0.48662
O         23.57224        28.97889        -1.10005
O         14.85656        35.61026        -1.53588
O         25.64483        12.64085        -2.26215
O         22.71928        31.51382         1.72064
O         31.47555        26.91292         0.03075
O         16.99640        43.07690        -2.15473
O         16.41219        20.59001        -1.28812
O         12.74707        33.32918         1.75173
O         17.50703        14.01865        -1.75784
O         29.32545        17.72175        -0.34859
O         10.62072        32.51973        -0.96523
O         23.95721        46.65349         1.55419
O         13.26076        28.18276        -1.63884
O         36.86033        31.28119        -0.77516
O         21.52271        38.81033         2.10385
O         17.68415        33.12364        -1.40934
O         29.48631        29.20314         2.25776
O         20.69744        19.51889         2.15088
O         28.12668        19.03570         2.96935
O         24.25144        19.03055        -1.08162
O         28.08050        23.94191         3.24043
O         22.80016        55.13472        -2.23190
O         29.92158        37.87835         1.71164
O         30.47795        32.62630         1.95842
O         28.16314        14.87479         1.83025
O         21.36092        19.23276        -1.42423
O         25.84205        20.21064         2.85869
O         31.85473        30.09711         2.96478
O         22.89433        16.49750        -1.92813
O         11.14966        20.56044        -0.90209
H         11.74745        20.72702        -1.65963
O         24.62412        44.06291         2.34574
H         23.80219        43.68641         2.73210
O         23.02945        49.61341        -2.12834
H         23.32307        50.28299        -2.78704
O         36.02261        31.72397         2.76499
H         35.26361        32.03869         3.30067
O         31.00079        42.04761         1.56745
H         30.34815        41.59001         2.13919
O         23.39075        40.47720         2.61200
H         22.68922        39.93157         3.04084
O         31.66730        41.85152        -2.03224
H         30.95393        42.37365        -2.45812
O         10.76790        37.57231         2.59854
H         11.03966        38.48573         2.86064
O         18.36973        18.33216         1.81496
H         19.21458        18.76081         2.17142
O         12.21102        30.78541         1.89988
H         12.39581        31.68391         2.27568
O          6.64927        35.16949        -0.60524
H          7.36602        34.68284        -1.06337
O         27.26309        35.42178         2.05138
H         26.49338        35.10469         2.56812
O         19.64379        30.73655         2.30871
H         20.52798        31.07729         2.56833
O         23.89272         6.36659        -0.67294
H         23.97654         5.44746        -0.34206
O         23.44108        37.11334         2.40600
H         22.89562        37.76646         2.90257
O         29.60323        33.58445        -1.48805
H         28.85430        34.04758        -1.93133
O         28.92035        22.61848         0.30430
H         29.75069        22.53069        -0.21527
O         19.63869        13.75641         1.13595
H         20.58529        13.72380         1.39983
O         26.12052        40.18790         2.24564
H         25.31463        40.40809         2.77206
O         26.76206        11.78619         1.13572
H         27.46230        12.13978         1.72459
O         26.26630        50.67911        -2.88133
H         26.91681        50.99209        -3.54432
O          7.31620        34.21111         2.86375
H          7.40309        33.35493         3.33228
O         32.97888        48.60862        -1.83368
H         33.04369        48.64553        -0.85769
O         13.84569        42.14938        -1.89813
H         14.43544        42.57810        -2.55725
O         17.27286        12.24525         1.45826
H         18.08942        12.73913         1.71219
O         28.52092        28.43855        -1.17659
H         27.73488        27.99339        -1.56803
O         26.45337        39.80706        -1.36517
H         27.11792        39.36273        -1.93211
O         33.48606        32.93242        -1.03156
H         34.40365        32.58984        -1.12446
O         23.35424        49.63045         1.53026
H         23.36692        48.90169         2.18874
O         27.84520        35.78249        -1.53727
H         28.51933        36.28949        -2.03801
O         15.21151        39.72948         1.69127
H         14.53324        39.41935         2.32927
O         31.93427        30.39438        -0.65075
H         32.28924        31.11351        -1.22258
O         21.23151        53.00828         1.70323
H         20.49980        53.38748         2.23598
O         32.04663        17.64080         3.03669
H         31.97205        18.47709         3.54572
O         12.98551        31.81427        -1.58575
H         12.97638        30.91667        -1.98053
O         22.96493        14.57653         1.18200
H         23.44737        13.81088         1.56059
O         26.20712        50.68894         0.77778
H         25.47314        50.43115         1.38152
O         23.69685        57.13438         1.80208
H         23.02250        57.66593         2.27797
O         37.89994        24.60859         0.90089
H         37.61756        24.71778        -0.03008
O         15.25803        39.87505        -1.95832
H         15.79369        40.40127        -2.58830
O         23.21498        32.99239        -1.62604
H         23.24550        33.89322        -2.01111
O         31.76399        39.16442        -1.74397
H         31.76645        40.03494        -2.21650
O         12.03800        39.97434         2.38959
H         12.05938        40.95347         2.50242
O         17.72424        32.28369         2.05270
H         18.20170        31.72493         2.71527
O         20.36042        50.25837        -1.92507
H         21.14192        49.83138        -2.35692
H          4.89513        31.21838         1.24075
H          4.89209        33.64937         1.47429
H          7.35184        26.88846         0.99196
H          6.13475        29.06099         1.15642
H          6.19975        35.90813         1.26462
H          7.42369        38.00052         0.41178
H          9.71482        22.57667         0.26504
H          8.55036        24.72180         0.66256
H          8.69672        40.04290        -0.01750
H          9.71143        41.97393        -0.56046
H         12.30800        18.21432         0.24068
H         11.25166        20.36642         1.14160
H         11.19957        44.35334        -1.32352
H         12.29756        46.61086        -0.22956
H         14.86943        13.90409         0.20934
H         13.57006        16.02977         0.19518
H         13.57799        48.76740         0.11344
H         14.80376        50.86378         0.19095
H         17.62430         9.65567        -0.35052
H         16.29231        11.66807        -0.26300
H         16.10342        53.09008         0.33398
H         17.44868        55.17509         0.64370
H         20.15038         5.52268        -1.57127
H         18.91794         7.58252        -0.86411
H         18.75585        57.29731         0.71454
H         20.09588        59.41276         0.73721
H         23.45829         2.50190        -3.26284
H         21.37633         3.51876        -2.40054
H         23.51969        62.71181         0.16060
H         21.36186        61.51857         0.49675
H         25.51822         3.83584        -3.60046
H         26.81134         5.91015        -3.18170
H         26.83763        59.27908        -0.30882
H         25.63659        61.44219        -0.16405
H         28.10817         7.82275        -2.70067
H         29.32025        10.34646        -2.03950
H         29.17360        55.00275        -1.18800
H         28.01280        57.14729        -0.75465
H         30.42059        12.14659        -0.97748
H         31.62431        14.09510        -0.13860
H         31.53685        50.64520        -1.86632
H         30.34511        52.81761        -1.60899
H         32.83714        16.09887         0.83223
H         34.08010        18.35287         1.18132
H         33.87678        46.32029        -2.04096
H         31.76387        47.86084        -3.30786
H         35.25840        20.43566         1.34264
H         36.53618        22.60680         1.45941
H         36.38061        41.76255        -1.99108
H         34.88507        44.08640        -2.44776
H         37.34094        25.16654         2.79352
H         38.92049        26.85387         0.88858
H         38.81084        37.72653        -1.28343
H         37.51717        39.83039        -1.56317
H         40.08478        28.93985         0.20307
H         41.29639        31.01356        -0.46567
H         41.27735        33.44515        -0.84127
H         40.07898        35.55720        -1.07514
