         598
 CSIRO Nanostructure Databank - Neutral Graphene Oxide Data Set
C         22.98747        69.87019        -1.51362
C         22.95990        71.27084        -1.45751
C         21.71955        71.98290        -1.38871
C         22.91274        74.09980        -1.28746
C         21.70115        73.35281        -1.29018
C         25.49744        65.64110        -1.12461
C         25.49833        67.03900        -1.34990
C         24.26890        67.75302        -1.55510
C         25.45392        69.92729        -1.72459
C         24.20628        69.14564        -1.60570
C         25.42098        71.36031        -1.42349
C         24.19267        72.03082        -1.38764
C         25.39671        74.30343        -1.50659
C         24.14055        73.47080        -1.33115
C         27.86807        61.35547        -0.40766
C         27.82760        62.76854        -0.38734
C         26.67083        63.51067        -0.63940
C         27.87562        65.68301        -0.56356
C         26.67300        64.94435        -0.75641
C         27.90809        67.08191        -0.80570
C         26.72863        67.74807        -1.23593
C         27.97972        69.94449        -1.12106
C         26.79178        69.17880        -1.53165
C         27.94827        71.35027        -1.03680
C         26.65408        72.04925        -1.03762
C         27.96253        74.23392        -1.19341
C         26.66546        73.60217        -1.04573
C         30.14870        57.03314         0.45905
C         30.24089        58.51680         0.18342
C         29.07936        59.22426        -0.06457
C         30.33081        61.33661        -0.14990
C         29.07705        60.64707        -0.20384
C         30.37023        62.77207        -0.19053
C         29.08263        63.47821        -0.05119
C         30.40511        65.64373        -0.32320
C         29.10307        64.98403        -0.13660
C         30.37463        67.13555        -0.13053
C         29.12615        67.82133        -0.64795
C         30.38173        69.96123        -0.52289
C         29.16181        69.22004        -0.78605
C         30.35289        71.40622        -0.51818
C         29.12960        72.09739        -0.76967
C         30.38919        74.22705        -0.73956
C         29.14634        73.54098        -0.87242
C         32.73806        52.79800         0.48112
C         32.68858        54.17442         0.63936
C         31.48317        54.93263         0.45958
C         32.71200        57.04850         0.63043
C         31.47499        56.30666         0.50627
C         32.71452        58.47189         0.48611
C         31.50094        59.19527         0.23576
C         32.80256        61.28288        -0.04770
C         31.53860        60.60269         0.02481
C         32.81603        62.70797        -0.51267
C         31.56347        63.47917        -0.34152
C         32.88157        65.64915        -0.45525
C         31.59112        64.93096        -0.39915
C         32.86914        67.07571        -0.36644
C         31.60093        67.80388        -0.71973
C         32.78695        69.95231        -0.03755
C         31.59255        69.27555        -0.38522
C         32.71593        71.40069         0.20770
C         31.52842        72.13042        -0.24731
C         32.83373        74.24752        -0.28464
C         31.57618        73.55596        -0.38975
C         35.21026        48.40931         0.27553
C         35.12140        49.84730         0.52857
C         33.95641        50.64351        -0.03029
C         35.18755        52.74571         0.57848
C         33.97904        52.09040         0.42239
C         35.23664        54.12931         1.03822
C         33.90090        54.90441         1.03626
C         35.15325        57.07115         0.99313
C         33.92585        56.36811         0.87008
C         35.15685        58.46357         0.85803
C         33.94737        59.17410         0.55838
C         35.28961        61.17158        -0.11451
C         33.96323        60.57810         0.24217
C         35.32565        62.66273        -0.30150
C         34.13237        63.45924        -0.68425
C         35.30616        65.77122        -0.46505
C         34.11719        64.96821        -0.56404
C         35.27295        67.13937        -0.07366
C         34.03003        67.82416        -0.10965
C         35.24225        69.98157         0.27914
C         34.00775        69.26421         0.07468
C         35.27701        71.39626         0.29676
C         34.03017        72.16804         0.35043
C         35.30951        74.23844        -0.09767
C         34.04524        73.60020        -0.02108
C         37.75729        44.25063        -0.39544
C         37.68315        45.62748        -0.12142
C         36.47619        46.31676         0.07710
C         37.65954        48.47634         0.54267
C         36.41987        47.72693         0.34283
C         37.66959        49.84841         0.62388
C         36.42603        50.60674         0.69917
C         37.73635        52.76056         0.67351
C         36.47588        52.04875         0.21603
C         37.71266        54.21116         0.86973
C         36.50642        54.88460         0.97593
C         37.67713        57.10130         0.99473
C         36.43166        56.33843         1.41053
C         37.69538        58.55590         1.21257
C         36.39827        59.23347         1.13634
C         37.77395        61.33393         0.61662
C         36.44584        60.68593         0.74135
C         37.79828        62.62441         0.06159
C         36.61446        63.09957        -0.55119
C         37.76788        65.78577        -0.11922
C         36.62184        65.26466        -0.68322
C         37.72818        67.16108         0.26047
C         36.48974        67.84912         0.19818
C         37.70275        69.96283         0.56620
C         36.47869        69.26564         0.35902
C         37.71737        71.38770         0.46824
C         36.51243        72.09530         0.28594
C         37.77134        74.20427         0.05715
C         36.52507        73.54197         0.09877
C         40.30013        40.02563        -1.45709
C         40.20725        41.49005        -1.31992
C         38.98522        42.17182        -0.90142
C         40.24624        44.22729        -0.39697
C         38.99076        43.54105        -0.60033
C         40.23558        45.66329        -0.08376
C         38.94071        46.40135        -0.02935
C         40.09086        48.38251         0.93285
C         38.93250        47.76396         0.54360
C         40.08482        49.85687         1.14505
C         38.97341        50.59026         0.40327
C         40.20899        52.77381         0.85766
C         38.90697        52.06469         0.75357
C         40.20410        54.23472         1.07497
C         38.98773        54.89975         1.00743
C         40.23433        57.07886         1.25922
C         38.99100        56.36680         0.92626
C         40.15474        58.51747         1.49153
C         38.90032        59.25922         1.20272
C         40.23384        61.47911         1.14413
C         38.95544        60.66826         0.98541
C         40.33216        62.76034         0.31295
C         39.04485        63.43849        -0.04966
C         40.23252        65.65870         0.05794
C         38.94318        64.92709         0.31998
C         40.22447        67.17298         0.23825
C         38.94286        67.86735         0.52139
C         40.17317        69.95227         1.19790
C         38.93118        69.23997         0.70928
C         40.15457        71.41616         0.80076
C         38.98549        72.08886         0.51690
C         40.22712        74.21233         0.23601
C         38.99975        73.53041         0.27129
C         42.89411        35.96389        -2.42984
C         42.83143        37.33911        -2.12899
C         41.59402        37.98091        -1.92917
C         42.79502        40.08743        -1.42517
C         41.50583        39.37159        -1.64481
C         42.79125        41.53704        -1.09878
C         41.50360        42.27678        -1.18706
C         42.73908        44.24707        -0.27991
C         41.49409        43.61425        -0.56986
C         42.73144        45.49785         0.50523
C         41.39979        46.19827         0.67651
C         42.65090        48.30600         1.47757
C         41.34113        47.61491         1.17010
C         42.63682        49.80413         1.72396
C         41.35616        50.56613         1.48638
C         42.71338        52.77564         1.46334
C         41.48221        52.01835         1.11233
C         42.67961        54.21003         1.43738
C         41.45298        54.92963         1.28111
C         42.69193        57.09072         1.55532
C         41.44172        56.37143         1.39493
C         42.71740        58.50651         1.50230
C         41.48356        59.29482         1.52400
C         42.73700        61.37920         1.03089
C         41.52202        60.69876         1.10816
C         42.81647        62.80755         0.64437
C         41.62859        63.53051         0.39501
C         42.57463        65.80466        -0.23016
C         41.51964        64.95017         0.12960
C         42.67259        67.18935         0.13357
C         41.49786        67.87058         0.47867
C         42.70611        69.94575         0.94402
C         41.49952        69.25943         0.84891
C         42.66836        71.39796         1.26927
C         41.38767        72.17788         1.05569
C         42.67893        74.23214         0.40806
C         41.46370        73.58766         0.58471
C         45.40196        33.28358        -3.17547
C         44.17607        33.92940        -2.96544
C         45.35565        36.06618        -2.63724
C         44.12390        35.31262        -2.68484
C         45.33359        37.45066        -2.40383
C         44.07110        38.11733        -2.13700
C         45.24149        40.31716        -2.25648
C         44.04914        39.46639        -1.87496
C         45.23558        41.75926        -1.72617
C         44.01409        42.36383        -1.19193
C         45.24140        44.35879        -0.34103
C         43.99316        43.65785        -0.65267
C         45.23023        45.64283         0.29001
C         43.96912        46.30268         0.65489
C         45.17635        48.40831         1.12678
C         43.91431        47.61512         1.08704
C         45.18431        49.85703         1.51515
C         43.90428        50.58676         1.80629
C         45.14083        52.78695         1.80694
C         43.91187        52.07950         1.65844
C         45.14808        54.20012         1.76369
C         43.91663        54.92303         1.61402
C         45.15823        57.04985         1.80975
C         43.92142        56.34782         1.63706
C         45.10563        58.50350         2.09583
C         43.91334        59.26871         1.65806
C         45.10562        61.45411         1.86159
C         43.91610        60.66085         1.48584
C         45.23206        62.81027         1.28957
C         44.16054        63.41507         0.64688
C         45.34145        65.63746         0.60148
C         44.41183        64.74672         0.10953
C         45.32831        67.09846         0.32162
C         43.98974        67.88815         0.16957
C         45.19498        69.97578         0.85387
C         43.99541        69.31443         0.64590
C         45.21475        71.39845         1.28982
C         43.93849        72.18173         1.27448
C         45.25926        74.24044         0.48344
C         43.95607        73.65702         0.85320
C         46.59975        33.98074        -3.09008
C         47.81069        36.08807        -2.65250
C         46.61022        35.37778        -2.80778
C         47.80994        37.47132        -2.34562
C         46.55825        38.18702        -2.27100
C         47.75306        40.26719        -1.73192
C         46.54930        39.58013        -2.02657
C         47.77418        41.64168        -1.33784
C         46.53414        42.44729        -1.34912
C         47.70581        44.29427        -0.16846
C         46.47965        43.70991        -0.57692
C         47.68552        45.56199         0.47507
C         46.46073        46.24508         0.65124
C         47.71730        48.32230         1.58198
C         46.43351        47.59640         1.27967
C         47.73564        49.81958         1.83721
C         46.43304        50.54377         1.99416
C         47.73048        52.80775         1.85936
C         46.40505        52.05713         2.04890
C         47.62322        54.25285         1.65052
C         46.40755        54.92610         1.77317
C         47.64064        57.10276         1.93929
C         46.38112        56.37439         1.83402
C         47.65871        58.50754         2.16405
C         46.38875        59.23861         2.38339
C         47.65507        61.45802         2.07697
C         46.36357        60.74226         2.31108
C         47.63620        62.93114         2.17305
C         46.52552        63.51841         1.40313
C         47.66164        65.85649         1.65185
C         46.54771        65.00896         1.15102
C         47.70237        67.24459         1.14174
C         46.54036        67.86268         0.70054
C         47.76870        70.02579         0.93913
C         46.52440        69.34721         0.41015
C         47.77303        71.45540         1.15798
C         46.48358        72.20278         1.22959
C         47.71451        74.23839         0.39056
C         46.46473        73.61500         0.74939
C         49.00973        38.16798        -2.11253
C         50.20786        40.19777        -1.45209
C         49.00239        39.53339        -1.76035
C         50.21799        41.53907        -1.02818
C         48.96550        42.25895        -0.92018
C         50.19421        44.23012        -0.12234
C         48.96280        43.59978        -0.40346
C         50.22507        45.56740         0.37445
C         48.97786        46.15825         0.87396
C         50.23405        48.39063         0.99527
C         49.02920        47.63210         1.32398
C         50.12476        49.85336         0.80745
C         48.89964        50.60317         1.29682
C         50.15105        52.75718         1.14322
C         48.96793        52.07575         1.46702
C         50.11751        54.24598         0.99329
C         48.84660        54.99748         1.30312
C         50.09529        57.10208         1.76877
C         48.86107        56.42714         1.69439
C         50.09133        58.50640         2.01749
C         48.88321        59.20233         2.16610
C         50.21020        61.41742         2.18550
C         48.92609        60.68784         2.08413
C         50.22329        62.88985         2.31227
C         48.89548        63.66590         2.31603
C         50.19272        65.83044         1.66755
C         48.93668        65.15729         2.05769
C         50.19522        67.18213         1.28734
C         48.97220        67.91617         1.16768
C         50.25084        70.03518         0.89899
C         48.99209        69.33975         1.01297
C         50.26810        71.42666         0.64740
C         49.06668        72.21910         0.92264
C         50.17288        74.20442        -0.01703
C         48.96741        73.61299         0.44416
C         51.43252        42.19001        -0.72415
C         52.66172        44.20324        -0.03382
C         51.44963        43.53487        -0.30692
C         52.68507        45.56787         0.33231
C         51.43228        46.25873         0.54653
C         52.68461        48.38106         0.67617
C         51.44073        47.68973         0.77544
C         52.72039        49.83535         0.53649
C         51.37805        50.65116         0.57443
C         52.69009        52.77564         0.96412
C         51.37840        52.08001         0.87074
C         52.76989        54.27513         0.76242
C         51.41399        55.02225         0.86172
C         52.36070        57.28781         1.03237
C         51.31084        56.45095         1.28636
C         52.58650        58.55531         1.69552
C         51.35328        59.26048         2.15442
C         52.62646        61.41778         1.70872
C         51.39447        60.73720         2.10469
C         52.61751        62.76975         1.44187
C         51.49410        63.59945         1.93125
C         52.54688        65.66168         0.76547
C         51.45623        65.07600         1.61253
C         52.64519        67.13903         0.74415
C         51.45056        67.86526         0.96625
C         52.69329        69.92004         0.44639
C         51.46824        69.27239         0.77433
C         52.71912        71.39385         0.41174
C         51.44723        72.12258         0.33356
C         52.61525        74.13094        -0.50056
C         51.40056        73.50501        -0.01655
C         53.90149        46.26050         0.48758
C         55.15312        48.38399         0.63292
C         53.92396        47.67226         0.63578
C         55.20478        49.79699         0.70319
C         53.98439        50.52119         0.73546
C         55.28457        52.66195         0.61821
C         53.98429        51.97291         0.91207
C         55.37187        54.11974         0.94453
C         54.10399        54.89520         1.10766
C         55.11345        57.14160         1.71157
C         54.24926        56.28172         0.99181
C         55.07390        58.55422         1.66225
C         53.85061        59.28595         1.47025
C         55.11293        61.36736         1.28108
C         53.85601        60.66334         1.48593
C         55.05771        62.68996         0.90508
C         53.72226        63.29779         0.53941
C         54.99918        65.55301         0.11633
C         53.73112        64.82342         0.36272
C         54.98934        66.92744        -0.03696
C         53.82606        67.75336         0.26282
C         55.04718        69.88637        -0.34262
C         53.86621        69.18740         0.14647
C         55.10119        71.26328        -0.51197
C         53.97725        72.10981        -0.06243
C         55.00263        74.18009        -1.20689
C         53.81240        73.47974        -0.59076
C         56.46683        50.48692         0.64921
C         57.74438        52.59329         0.30859
C         56.54944        51.87974         0.57211
C         57.83741        54.01054         0.44104
C         56.73438        54.70640         1.07282
C         58.11272        56.75349         1.19464
C         57.01217        55.95094         1.61897
C         58.15873        58.15279         1.44196
C         56.26301        59.31269         1.87314
C         57.64669        61.20730         1.04462
C         56.37320        60.63292         1.43264
C         57.58542        62.70582         0.86586
C         56.28980        63.32964         0.42551
C         57.55443        65.49438        -0.13696
C         56.25884        64.76778        -0.01071
C         57.44744        66.81971        -0.81267
C         56.15442        67.58095        -0.69607
C         57.48091        69.76526        -1.11590
C         56.18472        69.07992        -0.85234
C         57.46431        71.20979        -1.26857
C         56.27456        71.93147        -1.05271
C         57.44466        74.01491        -1.56560
C         56.27050        73.35506        -1.25948
C         58.99432        54.75503         0.08995
C         60.12753        57.00551        -0.14338
C         59.08753        56.15144         0.32875
C         60.10080        58.40009         0.04294
C         58.98733        59.04198         0.73345
C         59.92757        61.26417        -0.00482
C         58.81571        60.48709         0.72801
C         60.05369        62.66462         0.51918
C         58.82799        63.50084         0.67641
C         60.02426        65.49409        -0.49802
C         58.75466        64.88964         0.08611
C         59.99616        66.96380        -0.84684
C         58.69040        67.58807        -1.13333
C         59.89112        69.70293        -1.79876
C         58.64662        69.05646        -1.27652
C         59.90564        71.18805        -1.68469
C         58.68917        71.89523        -1.56727
C         59.90393        74.01009        -1.87955
C         58.69191        73.32627        -1.67220
C         61.26531        59.18746        -0.24555
C         62.50477        61.29002         0.00097
C         61.28064        60.56211        -0.03031
C         62.54911        62.65344         0.36274
C         61.26994        63.18869         0.80166
C         62.48542        65.62865        -0.20816
C         61.28520        65.26438         0.29319
C         62.49643        66.84258        -1.13744
C         61.17367        67.62223        -1.07257
C         62.35152        69.76736        -1.38212
C         61.17899        69.03926        -1.40106
C         62.37767        71.18736        -1.66365
C         61.12915        71.88640        -1.78293
C         62.38286        73.98427        -2.04779
C         61.12875        73.31575        -1.89830
C         63.70296        63.48312         0.23708
C         64.93794        65.59429        -0.16569
C         63.72456        64.90186         0.06105
C         64.95969        66.99064        -0.44632
C         63.65785        67.69416        -0.59735
C         64.87436        69.87589        -1.02546
C         63.60263        69.15804        -0.87358
C         64.86227        71.21429        -1.43469
C         63.59642        71.89147        -1.70309
C         64.86659        74.05064        -2.23981
C         63.58147        73.29910        -1.97411
C         66.11546        67.76318        -0.48606
C         67.30531        69.89753        -0.82601
C         66.10262        69.17664        -0.76675
C         67.31900        71.27490        -1.15087
C         66.09591        71.94185        -1.48611
C         67.32686        74.01683        -1.78991
C         66.12149        73.32525        -1.81503
C         68.53613        72.01538        -1.15549
C         68.53297        73.36154        -1.45882
O         47.06774        64.06027         0.11895
O         57.96854        66.81770        -2.18920
O         49.18940        46.54231         2.27490
O         40.16344        66.54090        -1.10078
O         53.34627        56.92386         0.12341
O         41.86280        71.82424         2.42058
O         40.86844        42.19415        -2.48368
O         48.27063        61.06175         0.77281
O         39.78747        46.43462        -1.25388
O         26.48272        72.86036         0.18944
O         49.23111        54.68759        -0.10094
O         36.14307        60.31784         2.10891
O         45.56463        58.75293         3.48152
O         33.42545        62.89802        -1.85535
O         40.32829        50.32468         2.50447
O         44.82391        67.56428        -0.99033
O         59.84587        69.42664        -3.36533
O         43.23726        50.13415         3.02409
O         47.17007        52.51028         3.19901
O         48.60945        71.92857         2.27628
O         38.24954        56.78483        -0.31541
O         40.71086        59.01322         2.76325
O         39.89210        62.86648        -1.09134
O         56.19646        63.66814        -1.00238
O         53.67942        71.98800         1.36638
O         57.35937        58.67523         2.46648
O         26.29190        69.55734        -2.86694
O         41.86224        47.67135         2.53477
O         52.07222        54.75799        -0.41538
O         36.76394        64.13574        -1.46838
O         58.19041        63.41837         2.00827
O         45.27749        49.46378         0.09624
O         56.08968        56.54499         2.50460
O         45.91719        71.78578         2.52109
O         49.62564        63.33366         3.55881
O         55.76405        68.19864        -1.96630
O         48.06126        65.81566         3.05175
O         28.98196        64.29605         1.17338
O         51.94306        64.59684         2.92082
O         52.65538        65.15307        -0.60851
O         35.57239        50.31339         1.84276
O         41.09324        52.34050        -0.26230
O         49.04906        50.22525        -0.13594
O         45.50889        61.37204         3.28980
O         52.02179        50.31551        -0.68764
O         34.49818        54.41170         2.28622
O         61.26800        64.44459         1.43120
O         33.20918        71.84454         1.51942
O         43.92207        73.22203         2.26542
O         43.61167        65.20299        -0.93340
O         42.87798        40.56045         0.00616
O         63.36530        68.58046         0.50288
O         55.22415        53.60684        -0.48444
O         41.88616        45.30560         1.70717
O         46.97173        47.63158         2.62907
O         45.93425        42.63408        -2.69121
O         62.78622        66.53058        -2.44791
O         47.17698        50.06011         3.15135
O         53.39515        52.38946         2.21437
O         52.23170        58.59508         3.13060
O         25.53097        74.65958        -2.89599
H         25.37238        73.86174        -3.44130
O         60.20611        64.75209        -1.74236
H         59.59469        65.14101        -2.40718
O         35.57128        60.63099        -1.45797
H         34.95946        61.08201        -2.08289
O         46.58964        69.56545        -1.04321
H         45.98597        68.89080        -1.44977
O         36.44434        56.32908         2.86524
H         35.70634        55.73726         3.14987
O         31.46259        67.69294        -2.16988
H         32.28564        68.02913        -2.58193
O         45.12295        40.42763        -3.71280
H         45.62316        41.23770        -3.97128
O         39.26058        50.49638        -1.01489
H         38.59087        51.04414        -1.48511
O         34.09305        50.60796        -1.47043
H         33.34247        51.10005        -1.86349
O         58.55224        69.78441        -3.84285
H         58.03584        68.94192        -3.76932
O         53.41459        62.72575        -0.76954
H         52.94911        63.41820        -1.29342
O         54.67488        74.62328        -2.53909
H         54.64445        73.83984        -3.12572
O         36.58690        51.96975        -1.24253
H         35.77353        51.51229        -1.57700
O         40.16388        61.98814         2.52030
H         40.19132        61.20517         3.11672
O         59.49137        61.34904        -1.39445
H         59.51777        60.44614        -1.77550
O         64.82098        75.36087        -1.65740
H         64.78097        75.26105        -0.68436
O         29.25767        56.40272        -0.47173
H         29.60311        56.55234        -1.37540
O         40.05899        69.88610         2.65450
H         40.69897        70.55188         3.01547
O         38.77964        64.83631         1.77017
H         38.60756        65.73295         2.12916
O         30.40115        67.33989         1.31100
H         29.75997        66.71941         1.71980
H         22.86441        75.19808        -1.27193
H         25.28880        75.26478        -0.94207
H         28.01280        75.26976        -1.55914
H         30.40470        75.31984        -0.86507
H         32.84663        75.32600        -0.50490
H         35.34703        75.31636        -0.31783
H         37.78994        75.29120        -0.11490
H         40.23800        75.28029        -0.02884
H         42.68886        75.23270        -0.05039
H         45.26473        75.23661         0.01460
H         47.66686        75.27309         0.01635
H         50.15292        75.24313        -0.37964
H         52.54426        75.16310        -0.87595
H         55.20442        75.11338        -0.61596
H         57.42743        75.10545        -1.70967
H         59.89762        75.10484        -1.98663
H         62.39604        75.07159        -2.21394
H         64.93101        74.21296        -3.35384
H         67.33526        75.08886        -2.03223
H         22.04042        69.31242        -1.46118
H         20.77970        71.41334        -1.42172
H         20.74387        73.88981        -1.24096
H         24.55576        65.08247        -1.23295
H         23.32932        67.18025        -1.53575
H         26.93589        60.79136        -0.55979
H         25.73074        62.97686        -0.84522
H         29.67066        56.90928         1.47254
H         28.12239        58.68386        -0.11089
H         31.81052        52.24798         0.25950
H         30.53814        54.39421         0.29408
H         34.30865        47.88079        -0.06918
H         32.97656        50.16800         0.25144
H         36.81876        43.68270        -0.48562
H         35.52677        45.76871        -0.02057
H         39.36408        39.44660        -1.47191
H         38.03998        41.60995        -0.87716
H         41.96252        35.37892        -2.46226
H         40.66662        37.39683        -2.02755
H         45.41356        32.20638        -3.39334
H         43.23974        33.35484        -3.01047
H         47.55615        33.45729        -3.23173
H         48.77132        35.56000        -2.74575
H         49.96880        37.63216        -2.16769
H         51.15806        39.64836        -1.52409
H         52.37970        41.64079        -0.82788
H         53.61209        43.66492        -0.16368
H         54.85176        45.71593         0.38845
H         56.09318        47.81718         0.56876
H         57.38533        49.88560         0.58385
H         58.65075        52.02856         0.04383
H         59.80886        54.24691        -0.44649
H         60.98034        56.56406        -0.67972
H         62.20507        58.65854        -0.46992
H         63.43399        60.76369        -0.26930
H         64.66443        62.96216         0.08650
H         65.89504        65.05518        -0.08189
H         67.09010        67.28897        -0.28964
H         68.25613        69.38678        -0.61206
H         69.47493        71.50171        -0.90334
H         69.47260        73.93129        -1.45146
