         671
 CSIRO Nanostructure Databank - Neutral Graphene Oxide Data Set
C          6.00257        31.73187         0.67398
C          6.02519        33.06534         0.44454
C          8.45973        27.41123         0.74372
C          8.44329        28.84376         0.81584
C          7.24167        29.53460         0.85666
C          8.49033        31.73616         1.36039
C          7.18514        30.97241         1.13801
C          8.37918        33.22629         1.19644
C          7.21087        33.86988         0.69745
C          8.39152        36.05309         0.68883
C          7.21797        35.26268         0.50259
C          8.41890        37.45714         0.50369
C         10.88112        23.10137         0.51976
C         10.84901        24.53617         0.39359
C          9.67076        25.25257         0.59499
C         10.86852        27.40364         0.32058
C          9.63834        26.68378         0.57580
C         10.85581        28.83954         0.38121
C          9.70474        29.57588         0.74259
C         10.98746        31.67421         0.87587
C          9.75762        30.99623         1.02252
C         11.25861        32.98671         1.36265
C          9.42628        34.07010         1.59276
C         10.85665        36.11175         1.24388
C          9.56423        35.40923         1.20011
C         10.89392        37.52880         0.83640
C          9.62228        38.22143         0.59373
C         10.85719        40.31870        -0.03603
C          9.59337        39.59512         0.35706
C         10.87835        41.83045         0.17254
C         13.30887        18.77554         0.49475
C         13.26385        20.20562         0.45171
C         12.08665        20.93060         0.51041
C         13.30418        23.07374         0.13790
C         12.05574        22.37210         0.42639
C         13.27991        24.51247        -0.07960
C         12.07190        25.24761         0.06506
C         13.27248        27.40343        -0.35507
C         12.03288        26.67785        -0.01473
C         13.34983        28.86865        -0.15773
C         12.06129        29.56330        -0.04916
C         13.42461        31.73223         0.18782
C         12.10889        31.06413         0.15111
C         13.43235        33.17294         0.32660
C         12.24192        33.82442         0.83046
C         13.32226        36.06989         0.41423
C         12.21647        35.28564         1.03527
C         13.37150        37.53117         0.62436
C         12.10879        38.20825         0.72776
C         13.35529        40.36079         0.25684
C         12.06150        39.72219         0.72796
C         13.33868        41.83880         0.06348
C         12.03251        42.53882         0.20546
C         13.36094        44.74025         0.11015
C         12.05093        44.04206         0.45180
C         13.39793        46.12396         0.01156
C         15.74321        14.44267         0.75116
C         15.66860        15.87846         0.52839
C         14.50708        16.61541         0.59280
C         15.74380        18.72666         0.07579
C         14.49371        18.04440         0.36873
C         15.68012        20.18498        -0.31320
C         14.59097        20.93161         0.48602
C         15.71770        23.03471        -0.51375
C         14.48949        22.37413         0.06052
C         15.76019        24.51044        -0.22718
C         14.54118        25.18129        -0.21747
C         15.78175        27.37160         0.05855
C         14.55104        26.64258        -0.41655
C         15.83387        28.82512        -0.45194
C         14.53815        29.56031        -0.17860
C         15.87602        31.68465        -0.03500
C         14.59194        31.00291        -0.02542
C         15.88766        33.13666         0.24089
C         14.62383        33.87503         0.21634
C         15.88889        36.09156         0.14227
C         14.62391        35.33635         0.08543
C         15.84571        37.49617         0.26354
C         14.61385        38.18418         0.46310
C         15.89869        40.44702         0.35983
C         14.63963        39.66889         0.58657
C         15.82022        41.89181         0.03666
C         14.61339        42.58854         0.10163
C         15.80837        44.71429        -0.20720
C         14.58372        44.01131        -0.00273
C         15.83476        46.12421        -0.26731
C         14.62334        46.84137        -0.15684
C         15.82459        48.99726        -0.34610
C         14.64234        48.27529        -0.17826
C         15.82750        50.42635        -0.29118
C         18.28006        10.17197         1.10338
C         18.25893        11.56221         1.10480
C         16.93258        12.29030         1.32025
C         18.20017        14.50059         0.95737
C         16.91819        13.76021         0.92493
C         18.21064        15.83206         0.28032
C         16.91547        16.56941         0.13659
C         18.22355        18.75103         0.05871
C         16.93942        18.04648         0.04044
C         18.22156        20.20181        -0.00870
C         17.00325        20.90731        -0.16319
C         18.22155        23.03333        -0.21464
C         17.00157        22.30184        -0.24166
C         18.22365        24.46057        -0.34092
C         17.02863        25.21154        -0.28006
C         18.24345        27.38429        -0.45628
C         17.05314        26.64221        -0.28921
C         18.31743        28.78262        -0.34710
C         17.08226        29.52872         0.10159
C         18.34699        31.69875        -0.28084
C         17.07726        31.01236        -0.15232
C         18.38646        33.15976        -0.24786
C         17.17579        33.90645         0.17948
C         18.34229        36.10048        -0.04527
C         17.13472        35.39278         0.09387
C         18.36850        37.51704        -0.07926
C         17.16102        38.24611         0.45973
C         18.24395        40.35858        -0.43021
C         17.13077        39.70004         0.05618
C         18.19492        41.79792        -0.64513
C         17.02093        42.56744        -0.34353
C         18.14996        44.67515        -1.02069
C         17.01412        43.98382        -0.46784
C         18.30462        46.11087        -0.94666
C         17.17527        46.82252        -0.20875
C         18.26196        48.98885        -0.70562
C         17.09364        48.29925        -0.50584
C         18.26445        50.49060        -0.87314
C         16.99876        51.16916        -0.39805
C         18.22058        53.27142         0.04670
C         17.02188        52.57046        -0.19061
C         18.26698        54.67137         0.15740
C         20.67948         5.92921        -0.00462
C         20.67315         7.32958         0.24532
C         19.51621         7.98146         0.66415
C         20.63838        10.16803         0.32127
C         19.58884         9.40540         1.14789
C         20.74540        11.57018         0.86083
C         19.47331        12.29479         1.03956
C         20.78592        14.43008         0.71853
C         19.52310        13.75262         1.11391
C         20.76776        15.88661         0.42823
C         19.48903        16.61042         0.22037
C         20.66223        18.82344         0.59201
C         19.41627        18.08468         0.29054
C         20.70807        20.25947         0.28719
C         19.44983        20.92989         0.06173
C         20.67640        23.09242         0.34435
C         19.43982        22.33224        -0.05297
C         20.71957        24.49871        -0.13911
C         19.50445        25.13275        -0.77287
C         20.76158        27.32161        -0.96688
C         19.53349        26.62041        -0.37477
C         20.73909        28.82257        -0.83937
C         19.56017        29.50636        -0.53798
C         20.76148        31.70053        -0.89912
C         19.52243        30.96743        -0.46644
C         20.82327        33.18098        -0.55659
C         19.55984        33.86398        -0.43811
C         20.60218        36.07602        -1.04946
C         19.64614        35.34141        -0.09586
C         20.84234        37.52108        -0.58171
C         19.51872        38.25251        -0.47346
C         20.65877        40.34663        -1.18724
C         19.47997        39.63894        -0.71697
C         20.58910        41.80486        -1.61585
C         19.25330        42.45200        -1.28345
C         20.96100        44.86181        -1.73442
C         19.08647        43.80603        -1.62008
C         20.80393        46.27491        -1.42433
C         19.50832        46.85261        -1.14599
C         20.72705        49.01024        -0.75267
C         19.52598        48.28535        -0.85933
C         20.70869        50.42526        -0.33838
C         19.51322        51.10229        -0.29818
C         20.71394        53.24481         0.05830
C         19.44931        52.44351         0.39082
C         20.70672        54.60418         0.77128
C         19.45450        55.39957         0.46745
C         20.73489        57.46783         0.99854
C         19.50314        56.76985         0.67924
C         20.74660        58.83283         1.32833
C         23.06452         3.13888        -0.74285
C         21.87341         3.82195        -0.48197
C         23.12128         5.93725        -0.36429
C         21.87198         5.22610        -0.28441
C         23.14990         7.34413        -0.18812
C         21.93846         8.06272         0.10335
C         23.18301        10.18345         0.03819
C         21.96441         9.44942         0.21794
C         23.21839        11.59627         0.12523
C         22.03584        12.30808         0.66193
C         23.13582        14.50123        -0.09379
C         21.95757        13.77039         0.51621
C         23.19440        15.94137         0.37591
C         22.04593        16.61929         0.60921
C         23.22695        18.84774         0.49399
C         21.99381        18.09300         0.78753
C         23.18849        20.19410         0.26150
C         21.93972        20.93986         0.22117
C         23.18990        23.08903        -0.05203
C         21.97996        22.36452         0.07848
C         23.22794        24.52046        -0.10739
C         21.95002        25.27355         0.25153
C         23.26444        27.40615        -0.45795
C         21.96587        26.73868        -0.21728
C         23.30308        28.76415        -1.02555
C         22.00226        29.50070        -1.36981
C         23.22933        31.35429        -0.38526
C         22.02901        30.89319        -0.78838
C         23.30977        33.49064        -0.39812
C         21.97643        33.94714        -0.68331
C         23.19273        35.99784        -1.58113
C         21.90930        35.31902        -1.22353
C         23.19414        37.51092        -1.67172
C         21.90512        38.23252        -1.39942
C         23.17215        40.41299        -1.48805
C         21.87757        39.70784        -1.33521
C         23.10855        41.88816        -1.18344
C         21.75579        42.56005        -0.90863
C         23.04912        44.76657        -0.48193
C         21.90504        44.05435        -1.17547
C         23.20160        46.14542        -1.08466
C         22.01008        46.97001        -1.24662
C         23.19804        49.10626        -0.71493
C         22.00397        48.38074        -0.95488
C         23.19487        50.27406         0.24258
C         21.94850        51.09242         0.05767
C         23.23306        53.15034         0.50967
C         21.99652        52.46339         0.28757
C         23.22951        54.58022         1.00489
C         22.01199        55.35366         0.46913
C         23.20195        57.43365         1.13569
C         21.98281        56.77652         0.94510
C         23.20998        58.82850         1.40852
C         21.96790        59.52515         1.53666
C         23.20866        61.58461         1.96687
C         21.99824        60.91828         1.83246
C         24.27801         3.81613        -0.82166
C         25.55482         5.93584        -0.73021
C         24.33415         5.22722        -0.64115
C         25.59882         7.33676        -0.58820
C         24.37683         8.05329        -0.33084
C         25.62685        10.18083        -0.36326
C         24.39900         9.47046        -0.22924
C         25.65047        11.60023        -0.28383
C         24.42222        12.31571        -0.08458
C         25.67332        14.41788        -0.00418
C         24.45155        13.74655        -0.00385
C         25.71844        15.84998         0.48516
C         24.47724        16.66905         0.09291
C         25.75934        18.74855         0.09809
C         24.53035        18.09526         0.68923
C         25.71409        20.15925        -0.33169
C         24.42079        20.90608        -0.17108
C         25.65606        23.06200         0.02018
C         24.45298        22.38784        -0.07877
C         25.70010        24.49814        -0.04785
C         24.45053        25.21180        -0.18747
C         25.73360        27.31132        -0.46533
C         24.51834        26.64471        -0.34180
C         25.75889        28.75013        -0.68062
C         24.50213        29.42030        -0.95077
C         25.75001        31.64893        -0.74372
C         24.47893        30.91457        -1.10438
C         25.76772        33.17440        -0.53114
C         24.48422        33.90066        -0.94661
C         25.60836        36.05095        -0.80294
C         24.54728        35.27528        -1.59096
C         25.65609        37.51374        -1.19642
C         24.48589        38.22995        -1.45091
C         25.60557        40.30822        -0.76929
C         24.44280        39.65520        -1.29694
C         25.50261        41.70601        -0.25406
C         24.26636        42.51896        -0.46350
C         25.56690        44.65265        -0.49006
C         24.35624        44.00098        -0.52303
C         25.68856        46.05332        -0.86688
C         24.45589        46.60294        -1.38654
C         25.68154        49.07834        -0.58103
C         24.46011        48.67369        -1.13990
C         25.70906        50.39712        -0.03989
C         24.48720        51.06656         0.17939
C         25.72765        53.18984         0.37563
C         24.47347        52.47320         0.39171
C         25.70655        54.68550         0.17110
C         24.48145        55.36917         0.70296
C         25.71865        57.47506         0.97065
C         24.46522        56.72115         0.91971
C         25.68264        58.83697         1.28478
C         24.45453        59.53512         1.50584
C         24.42916        60.91349         1.79519
C         26.81954         8.06197        -0.68617
C         28.07851        10.19711        -0.65872
C         26.85181         9.45621        -0.56795
C         28.10932        11.57171        -0.56074
C         26.88884        12.30785        -0.36902
C         28.16396        14.43525        -0.16450
C         26.91148        13.71998        -0.18218
C         28.19037        15.86171         0.01314
C         26.97735        16.60225         0.15210
C         28.20934        18.73919        -0.40359
C         26.93329        18.01587         0.01766
C         28.23481        20.20328         0.00215
C         27.01746        20.97437        -0.45807
C         28.19362        23.04136         0.27871
C         26.90426        22.26982         0.34709
C         28.13558        24.50929         0.57101
C         26.90901        25.20308         0.04662
C         28.19388        27.30291        -0.24452
C         26.97420        26.60645        -0.22463
C         28.24922        28.70436        -0.81937
C         26.94357        29.47593        -0.68831
C         28.21817        31.67575        -0.82490
C         26.92350        30.93885        -0.71755
C         28.26453        33.16079        -0.70394
C         27.00300        33.85120        -1.18375
C         28.09151        36.00805        -0.52610
C         26.96403        35.34014        -0.85713
C         27.95976        37.46153        -0.12195
C         26.98326        38.21719        -1.05413
C         27.92063        40.28792         0.19471
C         26.79990        39.63170        -0.58100
C         28.06173        41.73320        -0.30813
C         26.77562        42.45690         0.00585
C         28.08148        44.66699        -0.19229
C         26.79779        43.94924        -0.11485
C         28.09254        46.07932        -0.33293
C         26.87378        46.77959        -0.74463
C         28.22118        49.00987        -0.62790
C         26.91721        48.28506        -0.85517
C         28.18276        50.41801        -0.14017
C         26.97786        51.08637         0.07722
C         28.20124        53.25531         0.27634
C         26.94146        52.51923         0.27940
C         28.18468        54.66794         0.49588
C         26.98877        55.38804         0.56104
C         26.94521        56.76794         0.83511
C         29.43403        12.29269        -0.70742
C         30.61638        14.45054        -0.23920
C         29.40797        13.76328        -0.34265
C         30.66978        15.86530        -0.02541
C         29.42893        16.55055         0.01527
C         30.68477        18.75549         0.04872
C         29.38409        17.99859         0.35143
C         30.64068        20.14351         0.71113
C         29.37750        20.87781         0.31720
C         30.64292        23.04633         0.46525
C         29.39226        22.34631         0.36186
C         30.63610        24.48703         0.41503
C         29.42500        25.22034         0.28907
C         30.67142        27.32471         0.04521
C         29.42968        26.61427         0.03706
C         30.67102        28.78520        -0.09725
C         29.47296        29.47270        -0.38718
C         30.75104        31.72090        -0.47767
C         29.50043        30.91588        -0.69231
C         30.68079        33.17394        -0.18051
C         29.42130        33.85152        -0.45073
C         30.57491        36.05562         0.06318
C         29.45904        35.35457        -0.68743
C         30.50457        37.43601         0.24933
C         29.27585        38.19597         0.01806
C         30.41057        40.32371         0.74504
C         29.24219        39.55106         0.16750
C         30.48235        41.80404         0.38748
C         29.26842        42.49518         0.16675
C         30.44436        44.63500         0.42800
C         29.26751        43.92269         0.08169
C         30.32365        46.01637         0.57677
C         29.27607        46.78641         0.02269
C         30.68693        48.96424         0.20049
C         29.52907        48.20238        -0.51745
C         30.64510        50.44735        -0.07703
C         29.44095        51.13505        -0.03599
C         29.39901        52.56235         0.12183
C         31.88372        16.57093         0.25864
C         33.11350        18.71947         0.55697
C         31.94027        17.97699         0.39299
C         33.13610        20.16853         0.54444
C         31.91503        20.90119         0.47793
C         33.13134        23.00740         0.59231
C         31.89695        22.31708         0.49228
C         33.10654        24.46557         0.76607
C         31.86250        25.20522         0.44526
C         33.16404        27.31137         0.27728
C         31.86845        26.60091         0.27928
C         33.13708        28.80030         0.22603
C         31.86609        29.50976         0.09959
C         33.14214        31.70294         0.44938
C         31.98086        30.96399        -0.10799
C         33.06605        33.15992         0.56648
C         31.82275        33.85524         0.24348
C         32.89346        35.98612         0.87606
C         31.78030        35.31646         0.39097
C         32.85343        37.43083         1.05682
C         31.66441        38.17558         0.67580
C         32.94331        40.27580         0.58610
C         31.70870        39.57391         0.65709
C         32.89973        41.68093         0.02054
C         31.70061        42.48111         0.44962
C         33.03243        44.64231         0.10771
C         31.78125        43.96775         0.74223
C         33.19367        46.01538        -0.15413
C         32.27202        47.04751         0.23905
C         32.01182        48.31204        -0.21040
C         34.35168        20.88697         0.60331
C         35.61722        23.02169         0.73270
C         34.37782        22.30864         0.65192
C         35.69954        24.44098         0.75199
C         34.41879        25.18323         0.86526
C         35.60044        27.34022         0.71563
C         34.43197        26.64265         0.65452
C         35.56283        28.79307         1.00394
C         34.27633        29.53400         0.83516
C         35.45523        31.67766         1.44785
C         34.26340        31.01149         0.81203
C         35.46577        33.15909         1.17813
C         34.20901        33.83962         1.00091
C         35.41655        36.05790         1.10377
C         34.12945        35.29483         1.39742
C         35.45153        37.42375         0.93563
C         34.21390        38.21775         1.07606
C         35.40951        40.26600         0.27623
C         34.16613        39.60392         0.63268
C         35.39190        41.68222         0.06155
C         34.20541        42.42184         0.07540
C         34.17755        43.82243        -0.07795
C         36.88623        25.16896         0.71941
C         38.10041        27.45803         0.90987
C         36.91352        26.65646         0.43384
C         38.06642        28.84381         1.01413
C         36.81425        29.57988         1.05131
C         37.98087        31.72945         1.13487
C         36.76519        30.95881         1.16192
C         37.94167        33.13994         1.15469
C         36.68005        33.84197         1.21550
C         37.99226        36.07086         0.94607
C         36.67665        35.31857         1.26908
C         37.86620        37.43161         0.43917
C         36.67030        38.12985         0.55137
C         36.59616        39.53012         0.23775
C         39.27046        29.62847         1.06301
C         40.45197        31.78649         0.91633
C         39.23478        31.01520         1.04421
C         40.41345        33.13944         0.80641
C         39.17135        33.88184         0.90824
C         39.17257        35.24189         0.67877
O         23.31902        41.46961        -2.54169
O         13.36139        40.88861        -1.10662
O         11.78024        30.49547        -1.15867
O         15.35435        40.17604         1.76149
O         10.43737        33.49257         2.37058
O         22.28936        37.88655        -2.77546
O         20.29157        16.14689        -0.96486
O         33.43657        28.03487        -1.00634
O         19.96519        44.33271        -2.56100
O         18.85665        14.43307         2.25966
O         24.84032        20.38736        -1.49155
O         28.92825        31.21021        -2.04495
O         27.66688        48.86024        -1.99421
O         24.54444        47.74516        -2.19205
O         24.52592        41.87846         0.83037
O         13.91651        27.03175        -1.67166
O         26.73222        43.23944         1.20915
O         23.34959        32.41513         0.51424
O         31.73826        31.38244        -1.51845
O         28.29464        18.73640        -1.78652
O         37.50767        35.88192         2.32629
O         22.46523        27.58852         0.86250
O         22.36382        35.37093        -2.62990
O         22.28280        55.39916        -0.99754
O         21.65882        11.76459         2.00026
O          7.70289        31.26594         2.49752
O         16.67691        33.42597         1.49078
O         21.21085        18.51346         1.94386
O         31.38888        46.61247         1.25840
O         11.78827        35.78181         2.32001
O         33.66626        24.86279         2.09921
O         17.54231        15.85146        -1.01054
O         13.65733        35.73541        -0.96664
O         33.47498        37.91918         2.29688
O         34.65436        29.02824         2.17558
O         34.00170        35.28285         2.85489
H         33.91314        36.22739         3.13254
O         37.04388        26.71976        -1.05040
H         36.20444        26.38953        -1.43801
O         10.95470        44.67449        -0.21338
H         11.04971        44.52249        -1.17573
O         15.04906        20.92339         1.87293
H         14.38097        21.39324         2.41495
O         21.89855        29.49962        -2.82663
H         21.38424        30.31121        -3.06914
O         23.12974        49.67260         1.59147
H         22.96528        50.40154         2.22667
O         20.13005        10.31170        -1.03331
H         20.03285         9.41213        -1.41205
O         31.98691        44.08428         2.18361
H         31.92133        45.04562         2.39161
O         28.15119        41.68621        -1.76024
H         28.95843        41.18556        -2.00587
O         30.00897        47.95915        -1.85808
H         29.22509        48.02777        -2.45758
O         19.36525        52.12151         1.80076
H         19.52359        52.95112         2.30945
O         22.03197        25.29481         1.72161
H         22.32330        26.21203         1.96109
O         27.35411        37.50255         1.22090
H         27.96569        37.04361         1.83650
O         20.58521        31.80335        -2.38819
H         19.75518        32.30175        -2.55528
O         15.54263        22.93893        -1.99522
H         14.77800        23.50641        -2.23742
O         20.19107        35.35896         1.25991
H         19.48629        35.04651         1.86707
O         19.52745        24.88357        -2.20480
H         20.09082        25.56270        -2.64965
O         20.02107         9.35143         2.53961
H         20.48130        10.19210         2.75948
O         20.62400        53.47499        -1.37597
H         21.53412        53.64472        -1.71047
O         27.50274        40.35613         1.59006
H         27.22103        39.44413         1.84057
O         16.01028        28.79177        -1.88494
H         15.24035        28.29700        -2.25901
O         21.45819        37.54754         0.72965
H         20.89419        37.02652         1.35144
O         30.43419        48.85769         1.62272
H         31.21253        49.21050         2.10052
O         27.01473        33.63739        -2.60820
H         26.29145        34.18355        -3.01286
O         11.88610        40.12690         2.11366
H         12.56242        39.67213         2.65874
O         20.80445        41.86730        -3.03407
H         20.19064        41.24643        -3.47571
O         30.82588        18.95866        -1.37012
H         29.92285        18.92360        -1.80927
O         10.94015        40.04316        -1.45603
H         11.79657        40.41894        -1.77974
O         28.99562        18.02482         1.74566
H         29.35651        18.84122         2.17273
O         17.57265        46.73850         1.21539
H         16.89889        47.22713         1.73468
O         21.20633        56.12450        -1.63908
H         20.52454        55.41190        -1.78044
O         25.60809        54.83870        -1.29770
H         25.49234        55.79485        -1.48585
O         17.07289        29.45015         1.57264
H         17.67916        30.14075         1.91597
O         17.35927        38.25924         1.92687
H         16.69368        38.89790         2.28610
O         30.63300        19.99295         2.17880
H         30.57765        20.89239         2.56602
O         21.47607        42.42872         0.49971
H         21.97635        43.12610         0.99100
O         28.41086        28.52242        -2.27641
H         28.63052        29.41860        -2.63680
O         18.30744        50.75696        -2.32061
H         19.15910        50.40685        -2.65861
O         32.66338        41.47120        -1.43321
H         33.48442        41.08533        -1.80781
O         30.13429        40.36960         2.18891
H         29.18319        40.62723         2.29777
O         25.73367        15.69471         1.95167
H         26.60983        15.33200         2.20406
O         24.24094        31.26613        -2.50535
H         24.99939        30.93123        -3.02983
O         19.75382        26.57902         1.07015
H         19.84646        27.50110         1.39159
O         30.46093        11.60613         0.02234
H         30.22507        11.62244         0.97223
O         22.86567        14.58337        -1.54064
H         21.99386        15.02900        -1.65762
O         27.96400        24.55283         2.07041
H         28.85657        24.43808         2.46417
O         29.80648        35.50331        -2.09921
H         29.16031        34.97401        -2.61761
O         24.51538        16.84112        -1.34163
H         24.13501        16.03148        -1.76184
O         24.93788        35.24120        -2.98011
H         24.12715        35.02238        -3.49548
O         27.64081        38.24195        -2.36262
H         27.01929        38.65188        -3.00077
O         15.86439        11.58980         0.68357
H         16.01242        11.61318        -0.28387
O         26.75889        21.87438         1.74891
H         26.85178        22.69845         2.28147
O         25.95712        33.35528         0.89652
H         25.12087        33.08413         1.33808
O         35.26119        31.56707         2.89870
H         35.08107        30.61108         3.08139
O         20.65106        54.38407         2.21714
H         20.53986        55.26428         2.63813
O         19.93102        36.12708        -2.31872
H         20.63117        36.27242        -2.99983
O         23.21225        54.51558         2.45865
H         22.41068        54.00696         2.72412
O         25.12608        36.03262         0.56817
H         25.77308        36.55485         1.10586
O         15.61438        27.31631         1.49965
H         16.32583        27.85958         1.91486
O         22.70861        44.86225         0.94492
H         23.52024        45.10136         1.44162
O         15.31023        20.18968        -1.71264
H         15.41165        21.11529        -2.05374
O         24.68553        18.08910         2.12629
H         25.19296        17.28398         2.39631
O         20.54881        23.12774         1.81933
H         21.09178        23.89282         2.14100
O         20.94365        27.03202        -2.37781
H         21.26031        27.86148        -2.83048
O         27.24095        21.28478        -1.83723
H         27.53006        20.42949        -2.25512
H          5.10004        31.15110         0.42802
H          5.12860        33.57245         0.05851
H          7.50506        26.87510         0.85347
H          6.29425        28.98861         0.72885
H          6.29750        35.75719         0.15910
H          7.48888        37.97706         0.22995
H          9.93394        22.57772         0.72091
H          8.74024        24.70872         0.81775
H          8.62711        40.07146         0.12636
H          9.92054        42.36853         0.25672
H         12.36717        18.22978         0.66629
H         11.12517        20.39654         0.57275
H         11.87765        44.19993         1.55452
H         12.45978        46.69172         0.10126
H         14.79683        13.88369         0.82369
H         13.55829        16.11987         0.85034
H         13.69285        48.81813        -0.05997
H         14.88435        50.93884        -0.04442
H         17.33059         9.62655         1.21529
H         16.72162        12.24956         2.42613
H         16.06482        53.11702        -0.15667
H         17.34391        55.24435        -0.02776
H         19.73544         5.37018         0.08030
H         18.59232         7.40231         0.81637
H         18.58236        57.36590         0.58471
H         19.79807        59.38663         1.39290
H         23.04115         2.04967        -0.88891
H         20.92422         3.27017        -0.42436
H         23.21412        62.66024         2.19344
H         21.05072        61.46483         1.94387
H         25.20592         3.26488        -1.03084
H         26.48540         5.38265        -0.92657
H         26.62816        59.39460         1.36790
H         25.37516        61.46777         1.87710
H         27.75505         7.51093        -0.86434
H         29.02050         9.64717        -0.80225
H         29.14302        55.19327         0.63228
H         27.88887        57.30879         1.00806
H         29.73425        12.22770        -1.79167
H         31.55483        13.88272        -0.32479
H         31.58544        51.01826        -0.01384
H         30.35102        53.11402         0.15318
H         32.80407        15.98245         0.40317
H         34.07994        18.19428         0.62555
H         34.09845        46.31503        -0.70793
H         32.59364        48.75867        -1.02842
H         35.30217        20.33464         0.65006
H         36.55097        22.43926         0.72171
H         36.35387        42.20789        -0.03988
H         35.13522        44.33084        -0.27970
H         37.84088        24.62516         0.63841
H         39.08257        26.95952         0.89487
H         38.73925        37.90781        -0.03147
H         37.53289        40.04871        -0.01568
H         40.24131        29.11193         1.02337
H         41.40973        31.24881         0.86049
H         41.34215        33.71082         0.66189
H         40.10120        35.73703         0.35570
