         324
 CSIRO Nanostructure Databank - Neutral Graphene Oxide Data Set
C          2.76193         2.46173         3.98014
C          2.69143         3.85725         3.88354
C          3.90851         1.78948         3.59311
C          3.78338         4.61174         3.40314
C          2.50354         6.73724         3.54505
C          2.30914         8.05091         3.19227
C          3.67452         6.03318         3.15926
C          3.26714         8.74557         2.40628
C          1.86281        10.81783         2.35692
C          1.66586        12.12914         1.97760
C          3.03629        10.10600         1.99006
C          2.64821        12.82268         1.22404
C          1.28282        14.92086         0.87132
C          1.22688        16.31634         0.66817
C          2.49537        14.24152         0.91265
C          2.38039        17.07974         0.42382
C          2.34122        18.50391         0.21895
C          5.05916         2.50914         3.15802
C          5.00742         3.95251         3.08643
C          6.17077         1.82160         2.66099
C          6.10392         4.70280         2.57298
C          4.70503         6.72499         2.46232
C          4.47850         8.08850         2.05662
C          5.93963         6.04808         2.16727
C          5.44048         8.77022         1.24233
C          3.99965        10.75681         1.16792
C          3.79971        12.11873         0.81466
C          5.18528        10.05317         0.75341
C          4.80246        12.81594        -0.02657
C          3.72188        15.01442         0.71585
C          3.65319        16.42927         0.37020
C          4.99466        14.25710         0.25377
C          4.81259        17.11051        -0.03017
C          3.48542        19.20468        -0.03904
C          4.75575        18.54168        -0.20078
C          7.43140         2.50250         2.46670
C          7.43460         4.06983         2.49705
C          8.52113         1.84071         1.76866
C          8.63393         4.87281         1.97588
C          7.01319         6.72877         1.45823
C          6.77864         8.14405         1.05610
C          8.21895         6.10983         1.17784
C          7.75287         8.78885         0.11063
C          6.02481        10.61593        -0.35450
C          5.93036        12.08014        -0.69580
C          7.27429         9.90575        -0.75721
C          7.15304        12.84507        -1.05999
C          6.06003        14.98736        -0.41147
C          6.02252        16.39985        -0.38118
C          7.16731        14.26391        -0.98897
C          7.17058        17.13386        -0.78733
C          5.91727        19.24614        -0.49830
C          7.15173        18.56691        -0.73583
C          9.60123         2.51612         1.22406
C          9.73836         3.99813         1.31016
C         10.60308         1.78441         0.55059
C         10.72318         4.62598         0.34475
C          9.27165         6.79970         0.38099
C          8.90340         8.01361        -0.37903
C         10.53445         6.05526        -0.05499
C          9.65890         8.45115        -1.44389
C          8.28033        10.60227        -1.64587
C          8.22963        12.10424        -1.76761
C          9.53057         9.83085        -2.03243
C          9.44027        12.85676        -2.26440
C          8.32387        15.01688        -1.36490
C          8.35175        16.43344        -1.20322
C          9.47648        14.33056        -2.00729
C          9.54874        17.18128        -1.38348
C          8.35656        19.27218        -0.88087
C          9.57499        18.57686        -1.09094
C         11.61453         2.39226        -0.23113
C         11.59214         3.78620        -0.51189
C         12.69431         1.62049        -0.71078
C         12.56411         4.35849        -1.37208
C         11.19837         6.46426        -1.32261
C         10.64968         7.54558        -1.97855
C         12.41395         5.75382        -1.77265
C         12.22243         8.63787        -2.90505
C         10.75580        10.61468        -2.53186
C         10.80082        12.16578        -2.57013
C         12.11041         9.96091        -2.58147
C         11.91577        12.71222        -1.61340
C         10.82079        15.01027        -2.00549
C         10.82099        16.52005        -1.72496
C         12.03299        14.24426        -1.68819
C         12.05820        17.13562        -1.24220
C         10.81629        19.24845        -0.94422
C         12.03444        18.53188        -0.88753
C         13.77927         2.18712        -1.38842
C         13.68400         3.56962        -1.81972
C         14.96644         1.35257        -1.36667
C         14.78846         4.27388        -2.42946
C         13.47595         6.40132        -2.42613
C         13.45015         7.82012        -2.91373
C         14.74209         5.71034        -2.54925
C         14.69723         8.62416        -3.02975
C         13.32329        10.75389        -2.37829
C         13.25056        12.04424        -1.91444
C         14.63155        10.12113        -2.80056
C         14.47918        12.77680        -1.51181
C         13.22359        14.93927        -1.41381
C         13.24031        16.38513        -1.18046
C         14.47468        14.23955        -1.29435
C         14.44639        17.03873        -0.75249
C         13.22842        19.16492        -0.49137
C         14.43612        18.43897        -0.40496
C         16.11105         1.48516        -2.11817
C         15.99614         3.64886        -2.84337
C         17.35987         0.85657        -1.83254
C         17.23797         4.33898        -2.84851
C         15.95964         6.42625        -2.71180
C         15.99690         7.89822        -2.87845
C         17.20595         5.76135        -2.66061
C         17.23999         8.64339        -2.50439
C         15.91949        10.83090        -2.48331
C         15.80581        12.12233        -1.73299
C         17.18965        10.08893        -2.21282
C         17.03044        12.95793        -1.71886
C         15.67667        14.92196        -1.01602
C         15.66779        16.32653        -0.68196
C         16.96347        14.28774        -1.12342
C         16.87326        16.98643        -0.30204
C         15.62024        19.06565         0.04447
C         16.84419        18.36568         0.11229
C         18.59473         1.29889        -2.32015
C         18.49469         3.66033        -2.91075
C         19.82816         0.74185        -1.89585
C         19.68255         4.36483        -2.55730
C         18.43494         6.46432        -2.38733
C         18.42681         7.87989        -2.09334
C         19.61497         5.75288        -2.22304
C         19.52395         8.52023        -1.55614
C         18.27813        10.70074        -1.66689
C         18.35270        12.17244        -1.62971
C         19.35473         9.89507        -0.96205
C         19.46889        12.84824        -1.01055
C         18.15661        14.94243        -0.79156
C         18.12285        16.29839        -0.31993
C         19.42411        14.23946        -0.79413
C         19.31373        16.93628         0.10591
C         18.03125        18.97940         0.58070
C         19.26468        18.28752         0.60138
C         21.09205         1.35720        -2.06634
C         20.87206         3.63953        -2.28094
C         22.29413         1.04890        -1.45502
C         21.85220         4.06968        -1.21395
C         20.91864         6.44835        -1.95800
C         20.76307         7.82825        -1.35324
C         21.93368         5.59517        -1.24005
C         21.85251         8.48449        -0.81157
C         20.66344        10.61581        -0.74204
C         20.60564        12.06298        -0.51060
C         21.84297         9.91876        -0.55690
C         21.90476        12.79371        -0.29612
C         20.61989        14.93222        -0.45520
C         20.57881        16.25715         0.01988
C         21.93035        14.24676        -0.74479
C         21.77904        16.90716         0.44645
C         20.45181        18.88008         1.09311
C         21.69949        18.20614         1.04089
C         23.42962         1.93448        -1.29141
C         23.22617         3.38432        -1.31311
C         24.60202         1.28075        -0.83276
C         24.30777         4.24293        -1.13719
C         23.04564         6.25572        -0.74706
C         23.02132         7.69226        -0.38910
C         24.27358         5.55612        -0.59169
C         24.29844         8.40001         0.03057
C         23.11800        10.60562        -0.29292
C         23.16516        12.02367        -0.30267
C         24.33004         9.88291        -0.10160
C         24.39323        12.72296        -0.25713
C         23.12788        14.93852        -0.18498
C         23.06316        16.25504         0.29720
C         24.41081        14.22364        -0.37182
C         24.25585        16.94027         0.68079
C         22.87211        18.76463         1.60280
C         24.13691        18.14299         1.44727
C         25.79859         1.83728        -0.25597
C         26.09648         3.22066        -0.48228
C         26.71577         1.16124         0.55865
C         26.79961         4.02587         0.43002
C         25.44218         6.20665        -0.04174
C         25.53475         7.59798         0.16780
C         26.40902         5.35362         0.61536
C         26.88169         8.32525         0.22452
C         25.54809        10.57373         0.04090
C         25.57930        11.98840        -0.07212
C         26.77404         9.82987         0.48674
C         26.87595        12.70397        -0.12944
C         25.69140        15.00425        -0.28184
C         25.60729        16.54511         0.08586
C         26.93022        14.18100        -0.08918
C         26.74695        17.08741         0.94551
C         25.27453        18.68061         2.10842
C         26.55528        18.10016         1.95103
C         27.77262         1.87170         1.32083
C         27.77394         3.39609         1.38045
C         29.04962         1.20027         1.60722
C         29.06608         4.12211         1.61544
C         28.09188         6.40654         1.45565
C         28.05015         7.71757         0.99783
C         29.20704         5.53836         1.46707
C         29.32038         8.44216         1.11689
C         28.08322        10.56059         0.61273
C         28.16557        11.96724         0.11696
C         29.37860         9.85275         0.75072
C         29.41854        12.70281         0.42219
C         28.18416        14.73187        -0.10664
C         28.05575        16.75785         0.65711
C         29.40067        14.11315         0.38024
C         29.17037        17.00307         1.50697
C         27.68328        18.58966         2.65115
C         28.97676        18.03813         2.47911
C         30.17162         1.91798         1.90717
C         30.21994         3.35479         1.87897
C         31.47986         4.04329         2.10010
C         30.55893         6.10884         1.07188
C         30.63074         7.63190         1.23077
C         31.65754         5.34689         1.77390
C         31.82672         8.37850         0.81756
C         30.59077        10.52018         0.74074
C         30.60788        11.98943         0.69624
C         31.81162         9.73809         0.70809
C         31.76255        12.75368         0.94753
C         30.51090        14.88040         0.86921
C         30.40284        16.26103         1.42163
C         31.69671        14.14060         1.07981
C         31.47434        16.78671         2.16184
C         30.10199        18.49322         3.22221
C         31.33382        17.90604         3.00697
O         26.83332         5.87603         1.82030
O         25.58577         3.81609        -1.60644
O         17.87708        12.81346        -2.87545
O         10.94614        15.97743        -3.09148
O         29.99365         8.14790         2.41279
O         27.69297        12.14616        -1.25530
O          4.72330        12.48391        -1.44893
O         14.06875         8.08787        -4.23927
O          7.79930         3.31602         3.65101
O         21.05846        12.50304         0.84487
O         21.01739         2.49538        -2.93357
O         27.21191        10.32054         1.78869
O          4.79880        14.63195         1.64295
O          7.82952         9.08121         1.54219
O         10.58497         6.98458         1.06080
O          9.81460        10.00653        -3.44380
O         16.93390         8.33537        -3.92127
O          7.65205        11.21288        -2.79652
O         11.05878         4.42908         1.76428
O          9.09023        13.78477        -3.33477
O         27.20753         2.64422         2.48159
O         15.19008        12.02145        -0.41384
O         16.03793         2.32599        -3.24941
O          6.03042         9.65084        -1.47320
O         28.31138        16.05643        -0.52181
O         15.36506        10.87567        -3.82387
O         11.10277         7.87208        -3.25904
O         25.10338        14.73770        -1.61417
O         23.30184         7.94145         1.03600
O         18.58389         2.33728        -3.29678
O         11.20849        12.51788        -3.89198
H         10.49735        13.07705        -4.28877
O         11.49147        12.34836        -0.26883
H         12.24251        12.50511         0.34302
O         27.34197         8.28883        -1.17791
H         27.42537         7.35249        -1.45850
O         21.49268         6.68589        -3.30457
H         20.85542         7.23929        -3.80581
O         21.20493         3.66978         0.05275
H         21.73205         4.05333         0.78628
O          9.21747         5.44289         3.16904
H         10.14419         5.69358         2.93730
O         30.73317         5.88509        -0.37233
H         30.87738         4.92412        -0.50520
O         22.07872        14.20320        -2.21118
H         22.99369        14.48252        -2.43575
O         25.65895        17.25549        -1.17742
H         25.30971        16.63919        -1.86385
O         18.79930         9.68660         0.38972
H         19.53503         9.41706         0.98066
H          1.88861         1.90015         4.33977
H          1.74992         4.35047         4.15609
H          3.95391         0.69235         3.63753
H          1.72966         6.23317         4.13734
H          1.38606         8.55111         3.51085
H          1.09286        10.33142         2.96955
H          0.75770        12.65747         2.29906
H          0.34264        14.37059         1.01982
H          0.24865        16.81758         0.68525
H          1.37414        19.02240         0.29103
H          6.10763         0.74355         2.45499
H          3.44741        20.29604        -0.17095
H          8.42162         0.76214         1.57577
H          5.89350        20.34417        -0.55884
H         10.58951         0.68775         0.62976
H          8.37252        20.36367        -0.74807
H         12.75274         0.56540        -0.40588
H         10.81874        20.32656        -0.72703
H         14.97057         0.56999        -0.59295
H         13.21581        20.23263        -0.22899
H         17.36940         0.09635        -1.03901
H         15.58533        20.12438         0.34037
H         19.77346        -0.10956        -1.20311
H         17.99352        20.02266         0.92755
H         22.35066         0.07033        -0.95523
H         20.40975        19.89320         1.52011
H         24.50459         0.18981        -0.71365
H         22.80922        19.71446         2.15353
H         26.64570         0.06795         0.66944
H         25.14961        19.54829         2.77231
H         29.09548         0.10397         1.53242
H         27.54679        19.41107         3.36965
H         31.10948         1.38277         2.11950
H         32.31041         3.46754         2.53658
H         32.62998         5.83582         1.93217
H         32.74663         7.81900         0.59173
H         32.74864        10.25897         0.46220
H         32.72493        12.25322         1.12220
H         32.62026        14.65299         1.37872
H         32.46300        16.31169         2.13039
H         29.98394        19.30886         3.94905
H         32.21585        18.26669         3.55461
