         600
 CSIRO Nanostructure Databank - Neutral Graphene Oxide Data Set
C         23.07146        27.28029        -1.08685
C         23.05357        28.65393        -1.07808
C         23.02247        31.58739        -0.91358
C         23.01765        32.95918        -0.81386
C         23.00473        35.86560        -0.51027
C         22.99588        37.23306        -0.38342
C         22.96909        40.14170        -0.10156
C         22.94809        41.51191        -0.00861
C         22.92469        44.44921        -0.29868
C         22.88885        45.81127        -0.41565
C         25.51448        24.46696        -0.80076
C         24.32452        25.14718        -0.94309
C         25.52085        27.28814        -0.88109
C         24.29927        26.56620        -0.97222
C         25.50307        28.72035        -0.90847
C         24.25789        29.41354        -0.97721
C         25.46599        31.57258        -0.84620
C         24.23899        30.84965        -0.91874
C         25.46448        33.00135        -0.75629
C         24.22672        33.70556        -0.72004
C         25.45654        35.85252        -0.52458
C         24.22339        35.13506        -0.58581
C         25.44413        37.28485        -0.42924
C         24.20633        37.98276        -0.34445
C         25.41537        40.14089        -0.23253
C         24.18975        39.41479        -0.22496
C         25.40329        41.56838        -0.10515
C         24.14938        42.28360        -0.00401
C         25.35150        44.44493         0.27068
C         24.10332        43.70285         0.04693
C         25.35262        45.94196         0.21029
C         24.04879        46.66002        -0.08750
C         25.33798        48.73186        -0.39304
C         24.16296        48.05355        -0.53544
C         28.03794        23.04716        -0.37377
C         28.00122        24.45700        -0.49007
C         26.75217        25.15882        -0.68584
C         27.98774        27.30319        -0.66300
C         26.75269        26.57750        -0.74211
C         27.97886        28.72323        -0.76241
C         26.73260        29.44270        -0.86554
C         27.92703        31.61166        -0.84307
C         26.70768        30.86748        -0.86766
C         27.93405        32.99590        -0.70596
C         26.69975        33.72170        -0.65996
C         27.94061        35.88259        -0.54374
C         26.69497        35.14461        -0.55914
C         27.91880        37.31835        -0.52376
C         26.67731        38.01630        -0.43900
C         27.88863        40.17432        -0.41722
C         26.65958        39.44361        -0.36552
C         27.86288        41.60046        -0.35448
C         26.63147        42.26766        -0.18918
C         27.79846        44.49836        -0.54057
C         26.65143        43.72172         0.05947
C         27.83403        45.96278        -0.15684
C         26.62255        46.66203        -0.01251
C         27.82820        48.80744        -0.01285
C         26.58956        48.08218        -0.07851
C         27.86475        50.22616         0.05532
C         30.43743        23.08695         0.05192
C         29.21794        22.38548        -0.10097
C         30.45573        24.49657        -0.14552
C         29.22471        25.18268        -0.39178
C         30.45704        27.32867        -0.47239
C         29.22286        26.60992        -0.51015
C         30.44680        28.74664        -0.63975
C         29.21548        29.41771        -0.78806
C         30.48747        31.60480        -1.06649
C         29.18842        30.86547        -1.05486
C         30.48111        33.05839        -0.83566
C         29.21626        33.71295        -0.34565
C         30.40247        35.91369        -0.63667
C         29.17151        35.20065        -0.56968
C         30.39038        37.35130        -0.62550
C         29.15007        38.04935        -0.54926
C         30.36179        40.22086        -0.52578
C         29.13259        39.47908        -0.50409
C         30.35383        41.63700        -0.49809
C         29.10355        42.36444        -0.41206
C         30.32903        44.53980        -0.72630
C         29.09517        43.75334        -0.39226
C         30.30738        45.97480        -0.24555
C         29.06679        46.67237        -0.15546
C         30.30536        48.80787         0.11335
C         29.06680        48.09668         0.01417
C         30.30556        50.23573         0.17709
C         29.06181        50.91126         0.14557
C         32.80376        20.37568         1.15004
C         31.64791        21.02343         0.76158
C         32.86065        23.13349         0.56959
C         31.64669        22.40183         0.44267
C         32.90992        24.53772         0.24109
C         31.69470        25.22253        -0.09206
C         32.93343        27.36644        -0.33326
C         31.69713        26.63447        -0.30845
C         32.95305        28.74868        -0.49769
C         31.70565        29.47706        -0.66123
C         33.00661        31.57334        -1.14803
C         31.72678        30.85042        -0.83746
C         32.95749        33.06650        -0.90443
C         31.68069        33.77023        -0.87071
C         32.85653        35.96400        -0.97392
C         31.62831        35.20381        -0.77025
C         32.86030        37.41042        -0.72197
C         31.62167        38.09026        -0.63121
C         32.84232        40.23219        -0.56921
C         31.61151        39.51863        -0.57172
C         32.83853        41.66523        -0.51906
C         31.59090        42.36195        -0.50976
C         32.79540        44.47032        -0.25500
C         31.59421        43.78048        -0.44183
C         32.75316        45.89293         0.12413
C         31.50511        46.66362        -0.01843
C         32.79848        48.78873         0.18060
C         31.53613        48.07887         0.14926
C         32.79128        50.24858         0.25041
C         31.56181        50.95727         0.27241
C         32.80811        53.04494         0.56293
C         31.61075        52.36736         0.41586
C         35.30718        18.94243         1.60043
C         35.28019        20.35775         1.51087
C         34.02930        21.07511         1.27723
C         35.23205        23.26385         1.28043
C         34.02818        22.46525         1.02052
C         35.32167        24.62971         0.74589
C         34.15361        25.23085         0.25459
C         35.43126        27.39817         0.07467
C         34.23336        26.59682        -0.37992
C         35.43003        28.80232        -0.08184
C         34.20829        29.49750        -0.42453
C         35.42530        31.63879        -0.38512
C         34.22560        30.88109        -0.59440
C         35.40451        33.06172        -0.49439
C         34.15713        33.74348        -0.75747
C         35.38990        35.96260        -0.59229
C         34.17969        35.20611        -0.93094
C         35.34271        37.38896        -0.62054
C         34.09070        38.10375        -0.67211
C         35.31821        40.25120        -0.57856
C         34.08525        39.52954        -0.59419
C         35.31986        41.68167        -0.57405
C         34.06068        42.39174        -0.51201
C         35.27833        44.56333        -0.36946
C         34.04648        43.80358        -0.34853
C         35.30384        45.92754        -0.16111
C         34.06574        46.64693         0.20428
C         35.27917        48.85039        -0.22268
C         34.00708        48.10281         0.08340
C         35.26690        50.18235         0.49000
C         34.01056        50.95805         0.40390
C         35.32862        53.06593         0.72198
C         34.04750        52.35721         0.57934
C         35.37465        54.48165         0.83412
C         37.74365        18.91536         1.48499
C         36.49940        18.24752         1.60243
C         37.74766        20.33883         1.45182
C         36.51466        21.04298         1.50153
C         37.80580        23.22083         1.34704
C         36.53711        22.50949         1.54514
C         37.78927        24.63919         1.13179
C         36.58487        25.31367         0.78414
C         37.83406        27.45265         0.59895
C         36.60994        26.72357         0.46452
C         37.85487        28.86924         0.40803
C         36.64554        29.54429         0.09301
C         37.84326        31.72127         0.12764
C         36.63810        30.96971        -0.05923
C         37.79466        33.14033         0.07704
C         36.59586        33.80911        -0.24846
C         37.80482        36.00040        -0.25560
C         36.57677        35.26607        -0.32470
C         37.78926        37.41222        -0.44570
C         36.55507        38.11651        -0.54652
C         37.78553        40.26569        -0.61866
C         36.55409        39.54865        -0.58964
C         37.77561        41.69494        -0.63392
C         36.53612        42.38555        -0.61771
C         37.79597        44.55735        -0.42345
C         36.52552        43.87323        -0.85832
C         37.79272        45.94283        -0.19198
C         36.54889        46.68076        -0.15372
C         37.79061        48.78352         0.16178
C         36.55105        48.06410        -0.00131
C         37.82274        50.18536         0.36418
C         36.56700        50.90186         0.66227
C         37.80584        53.05927         0.76287
C         36.55617        52.37340         0.71044
C         37.81802        54.47817         0.92620
C         36.57261        55.15780         0.95088
C         40.20825        16.08625         1.23720
C         39.02173        16.77856         1.38781
C         40.21018        18.92337         1.23410
C         38.98951        18.19534         1.38132
C         40.22145        20.34668         1.29131
C         38.99320        21.06260         1.41241
C         40.28411        23.20210         1.72784
C         38.99650        22.48865         1.41211
C         40.28143        24.66495         1.37232
C         39.04502        25.36134         1.16526
C         40.23571        27.54151         1.21578
C         39.02615        26.75755         0.93768
C         40.30485        28.95962         0.83081
C         39.09252        29.61776         0.51626
C         40.32333        31.76553         0.44657
C         39.07862        31.03239         0.36321
C         40.29596        33.16641         0.39119
C         39.00104        33.92769         0.53239
C         40.23779        36.03452        -0.20429
C         39.03898        35.33074        -0.03638
C         40.22321        37.41049        -0.53842
C         39.01486        38.12873        -0.54677
C         40.25603        40.27340        -0.73112
C         39.02475        39.56351        -0.65858
C         40.25477        41.70908        -0.68573
C         39.01840        42.41074        -0.62160
C         40.25473        44.52700        -0.29656
C         39.01694        43.83835        -0.46060
C         40.25791        45.92739        -0.05937
C         39.02599        46.64026        -0.01282
C         40.25300        48.74798         0.31491
C         39.01886        48.05399         0.15437
C         40.26168        50.16443         0.39310
C         39.04994        50.89531         0.43934
C         40.25986        53.04498         0.81378
C         39.04647        52.33830         0.65132
C         40.27452        54.42148         1.11959
C         39.07212        55.16994         1.11700
C         40.36467        57.25826         1.32224
C         39.14539        56.59216         1.25191
C         42.64611        16.06469         0.86438
C         41.42586        16.77764         1.04456
C         42.65321        18.90365         0.80323
C         41.43671        18.20692         1.03015
C         42.66896        20.34442         0.83348
C         41.47051        21.06032         1.13273
C         42.71043        23.18025         1.05289
C         41.50918        22.47017         1.25092
C         42.75802        24.62063         1.23554
C         41.52732        25.32734         1.36943
C         42.80397        27.55276         1.49352
C         41.51631        26.79444         1.49171
C         42.77617        28.98764         1.17356
C         41.56556        29.65378         0.88633
C         42.81616        31.79264         0.62569
C         41.56822        31.07675         0.65064
C         42.82454        33.20660         0.42110
C         41.54261        33.91077         0.50603
C         42.79000        35.99956        -0.29166
C         41.53309        35.40600         0.14242
C         42.76865        37.34252        -0.89206
C         41.45547        38.10626        -0.93635
C         42.72359        40.25891        -0.91314
C         41.49257        39.57425        -0.86260
C         42.73861        41.69524        -0.80519
C         41.49186        42.41407        -0.68402
C         42.71511        44.54374        -0.38144
C         41.49654        43.82768        -0.46109
C         42.74564        45.89662         0.02499
C         41.49549        46.61890         0.16480
C         42.70146        48.69853         0.80041
C         41.47272        48.00356         0.38956
C         42.79039        50.14454         0.68428
C         41.55565        50.87106         0.36453
C         42.82298        53.00590         0.98412
C         41.55391        52.36741         0.57843
C         42.83202        54.37201         1.27705
C         41.54283        55.07548         1.62347
C         42.83694        57.21626         1.42775
C         41.58474        56.56112         1.38880
C         43.82742        16.73721         0.68536
C         45.10401        18.85633         0.48169
C         43.87177        18.16632         0.63986
C         45.08956        20.30768         0.06491
C         43.87150        21.06294         0.57628
C         45.08607        23.23936         0.30989
C         43.87802        22.46104         0.65940
C         45.14312        24.67460         0.62636
C         44.02335        25.31718         1.13695
C         45.43515        27.50221         1.43299
C         44.09212        26.76847         1.49271
C         45.31738        28.98189         1.08211
C         44.05458        29.75225         1.41870
C         45.27708        31.81527         0.58871
C         44.05335        31.13169         0.81326
C         45.27226        33.21765         0.27869
C         44.02560        33.92257         0.25759
C         45.23949        36.01246        -0.38024
C         44.00622        35.33406        -0.08846
C         45.21157        37.38806        -0.76207
C         44.01813        38.11236        -0.90629
C         45.18149        40.28594        -1.09198
C         43.97957        39.54651        -1.02946
C         45.20319        41.70782        -0.93514
C         43.95922        42.39400        -0.79271
C         45.24344        44.53690        -0.43022
C         43.96608        43.89484        -0.89981
C         45.24036        45.89649        -0.04550
C         43.99700        46.55718         0.19955
C         45.27698        48.68858         0.67477
C         44.03496        47.91256         0.73532
C         45.25842        50.08100         0.88179
C         44.01045        50.81550         0.85434
C         45.27185        52.92660         1.18652
C         44.03235        52.25391         0.96208
C         45.28849        54.35680         1.26780
C         44.06708        55.08136         1.35654
C         44.02856        56.51429         1.46408
C         47.53944        18.88360         0.62922
C         46.33926        18.19708         0.63645
C         47.57080        20.30836         0.52224
C         46.39856        21.02111         0.34682
C         47.64971        23.26003         0.38614
C         46.40578        22.48727         0.19156
C         47.66493        24.62963         0.29490
C         46.36926        25.41202         0.10514
C         47.71304        27.46109         0.55072
C         46.51104        26.81698         0.62733
C         47.76462        28.91032         0.86364
C         46.48379        29.66710         0.83371
C         47.74339        31.77780         0.33082
C         46.51968        31.09854         0.61573
C         47.73093        33.18951         0.05574
C         46.49646        33.90593         0.03272
C         47.72045        36.00063        -0.44572
C         46.48894        35.31446        -0.27369
C         47.73820        37.40493        -0.79012
C         46.46587        38.04941        -1.13145
C         47.71314        40.28241        -1.15812
C         46.44502        39.57273        -1.32010
C         47.70979        41.77400        -1.34966
C         46.43051        42.43694        -0.91388
C         47.70774        44.51526        -0.36995
C         46.46088        43.82522        -0.58337
C         47.71731        45.88114         0.00540
C         46.48611        46.58909         0.17276
C         47.73819        48.67678         0.67287
C         46.49773        47.97982         0.48791
C         47.74301        50.06096         0.98925
C         46.50405        50.78804         1.04591
C         47.72436        52.89877         1.74971
C         46.48860        52.18320         1.26145
C         47.73501        54.33860         1.30007
C         46.57521        55.02100         1.17489
C         50.13180        20.33387         0.33184
C         48.87748        21.00637         0.69294
C         50.17642        23.20238         0.35971
C         48.90365        22.52369         0.65028
C         50.16876        24.61915         0.22654
C         48.93215        25.34514         0.27894
C         50.19316        27.46092         0.15382
C         48.95112        26.75236         0.27231
C         50.23344        28.88055         0.16134
C         49.04173        29.64673         0.56362
C         50.19553        31.74110        -0.07374
C         48.98978        31.08521         0.26214
C         50.19670        33.16277        -0.26227
C         48.95984        33.86936        -0.19905
C         50.19167        35.97343        -0.53940
C         48.96127        35.28868        -0.38111
C         50.19834        37.47619        -0.44373
C         48.91036        38.13517        -0.85951
C         50.15124        40.30783        -1.03104
C         48.90361        39.57348        -1.05674
C         50.17856        41.69997        -0.86821
C         48.95392        42.43890        -0.82037
C         50.20475        44.48191        -0.28417
C         48.95327        43.79626        -0.49517
C         50.21577        45.84836         0.08031
C         48.96581        46.56724         0.24958
C         50.20856        48.60389         0.97332
C         48.95604        47.92783         0.59370
C         50.23309        50.07019         1.11459
C         49.00056        50.77009         1.18439
C         50.23785        52.79274         1.70483
C         49.01165        52.15243         1.48885
C         51.29834        21.02078         0.21874
C         52.62333        23.15872         0.13516
C         51.36857        22.46369         0.27823
C         52.63580        24.57917         0.04013
C         51.40504        25.31088         0.07659
C         52.65065        27.43391        -0.13886
C         51.41468        26.73414         0.00863
C         52.65736        28.85384        -0.23294
C         51.43168        29.58003        -0.09741
C         52.64791        31.70502        -0.44513
C         51.43024        31.01434        -0.19025
C         52.65597        33.13091        -0.58810
C         51.42015        33.85103        -0.50463
C         52.66878        35.97831        -0.82237
C         51.41557        35.27792        -0.62207
C         52.68097        37.38264        -0.98500
C         51.39845        38.08374        -1.12079
C         52.68224        40.28557        -1.12089
C         51.40283        39.58632        -1.26205
C         52.67400        41.68468        -0.88171
C         51.43888        42.39016        -0.74878
C         52.68318        44.48927        -0.41402
C         51.43958        43.78343        -0.47658
C         52.67247        45.88199        -0.14103
C         51.47084        46.52259         0.17517
C         52.76502        48.66832         0.67520
C         51.51452        47.88462         0.73485
C         52.74762        50.02427         1.08831
C         51.47377        50.73324         1.28440
C         51.44532        52.11140         1.57765
C         55.06107        23.14496         0.01691
C         53.86461        22.46846         0.11974
C         55.10710        24.56088        -0.08305
C         53.87856        25.28025        -0.07711
C         55.11085        27.41246        -0.30760
C         53.88181        26.70910        -0.18154
C         55.11354        28.83564        -0.43474
C         53.88527        29.55760        -0.40566
C         55.10548        31.67726        -0.75516
C         53.88060        30.98189        -0.53405
C         55.10668        33.09728        -0.92950
C         53.88359        33.81813        -0.82703
C         55.10368        35.95219        -1.19617
C         53.89424        35.25557        -0.94619
C         55.11401        37.38744        -1.22747
C         53.88190        38.10592        -1.13894
C         55.13195        40.24463        -1.01709
C         53.88828        39.54888        -1.13259
C         55.14971        41.65314        -0.83274
C         53.91964        42.38474        -0.75442
C         55.17892        44.48543        -0.39580
C         53.92392        43.78546        -0.55138
C         55.19804        45.87577        -0.18364
C         53.93436        46.68134        -0.36515
C         55.20090        48.69413         0.47370
C         53.96550        48.02618         0.32119
C         55.18245        50.02598         0.94506
C         53.98929        50.68421         1.20600
C         57.61088        24.59868        -0.14855
C         56.35902        25.27526        -0.17827
C         57.58202        27.40980        -0.40337
C         56.34977        26.69274        -0.29912
C         57.58528        28.83173        -0.55647
C         56.34668        29.54329        -0.58186
C         57.57029        31.64694        -0.99066
C         56.33838        30.95428        -0.76835
C         57.53496        33.04117        -1.32221
C         56.33645        33.77686        -1.23881
C         57.52804        35.91865        -1.62290
C         56.34446        35.22398        -1.38674
C         57.56633        37.41873        -1.79065
C         56.32745        38.11252        -1.31555
C         57.61333        40.19709        -0.97825
C         56.35942        39.51258        -1.11694
C         57.62814        41.60031        -0.73327
C         56.39661        42.33704        -0.67844
C         57.65230        44.42509        -0.28856
C         56.40923        43.74055        -0.44552
C         57.65881        45.83589        -0.07619
C         56.42999        46.56762        -0.00855
C         57.69971        48.62841         0.33193
C         56.45528        47.97756         0.23790
C         58.80132        25.28769        -0.23325
C         60.03832        27.42479        -0.46373
C         58.81448        26.70108        -0.36589
C         60.03990        28.78885        -0.61938
C         58.82060        29.53359        -0.68483
C         60.03346        31.67740        -1.12105
C         58.80743        30.94576        -0.91933
C         60.03427        32.96330        -1.55551
C         58.77680        33.67507        -1.78843
C         60.02931        35.98069        -1.81891
C         58.77358        35.22686        -1.95694
C         60.04085        37.29601        -1.44644
C         58.84471        38.06879        -1.32040
C         60.05925        40.15424        -0.72638
C         58.84464        39.44465        -1.00861
C         60.07094        41.50721        -0.51760
C         58.86953        42.28476        -0.53292
C         60.11030        44.42737        -0.18935
C         58.88595        43.69928        -0.33597
C         60.11967        45.78629        -0.01085
C         58.89921        46.52818         0.05380
C         58.89650        47.92698         0.23430
O         33.58709        35.61092        -2.21350
O         24.54645        46.49754         1.29360
O         35.75016        23.09590         2.64344
O         42.01894        37.49321        -2.16069
O         43.47931        27.14719         2.77841
O         33.41171        46.12908         1.41978
O         35.86781        50.23264         1.81013
O         51.24049        38.66927        -2.43671
O         41.66342        51.80276        -0.77910
O         41.53130        34.96442         1.55665
O         48.63567        29.30664         1.96170
O         26.20737        44.02591         1.40866
O         40.69492        27.28152         2.60743
O         50.91152        47.92185         2.08238
O         43.30707        48.11297         1.99583
O         46.42809        38.65127        -2.46479
O         29.81655        31.22160        -2.36138
O         48.92488        21.79042         1.93442
O         58.68849        34.32306        -3.10142
O         45.64799        22.91145        -1.03862
O         53.90170        47.01339        -1.80947
H         53.96871        46.16866        -2.30415
O         36.48792        44.02661        -2.33231
H         37.28141        43.57394        -2.69090
O         44.94759        20.28668        -1.40446
H         45.06342        21.22368        -1.69883
O         47.60265        52.93698         3.22122
H         46.75453        53.38439         3.42949
O         33.12698        31.43929        -2.61951
H         32.27029        31.72168        -3.00916
O         35.25503        49.18839        -1.65184
H         35.30741        48.35311        -2.16289
O         57.56708        37.62193        -3.26608
H         56.82766        37.09197        -3.63415
O         44.11053        29.95894         2.88449
H         43.84920        29.10187         3.29632
O         40.36050        23.16135         3.20719
H         39.66752        23.76352         3.55413
O         50.39480        37.79189         0.98270
H         49.69750        37.32504         1.49039
O         30.29555        44.67995        -2.22533
H         30.51381        43.79689        -2.59656
O         29.29116        33.56172         1.14266
H         28.54280        34.07339         1.51977
O         27.51805        44.51738        -1.98849
H         28.37072        44.76929        -2.42529
O         46.15537        25.55454        -1.34004
H         46.00776        24.63870        -1.68441
O         45.98424        27.45136         2.78666
H         45.23098        27.56800         3.41041
O         34.47342        26.33395        -1.81550
H         34.47851        27.20203        -2.27345
O         47.75895        41.97938        -2.82401
H         48.45420        41.38423        -3.17929
O         41.45406        54.93045         3.10334
H         40.67915        55.45825         3.39410
O         43.93665        44.16116        -2.36913
H         44.72220        43.71354        -2.75390
O         38.84246        34.11947         1.98879
H         39.68891        34.52138         2.30134
H         22.13178        26.71512        -1.16808
H         22.08706        29.16916        -1.15433
H         22.05983        31.06379        -0.97908
H         22.04970        33.47660        -0.80586
H         22.04307        35.33803        -0.54581
H         22.02749        37.74572        -0.32340
H         22.01177        39.60537        -0.07436
H         21.97990        42.01879         0.10145
H         22.01396        43.88966        -0.55671
H         21.97184        46.30089        -0.77549
H         25.49211        23.36972        -0.77521
H         23.37839        24.59323        -1.02599
H         25.36033        49.79871        -0.65773
H         23.27285        48.56050        -0.93623
H         27.11814        22.45712        -0.47450
H         26.92701        50.79794         0.05189
H         29.19169        21.29334         0.00353
H         29.03155        52.00775         0.19593
H         32.75240        19.30098         1.36619
H         30.72108        20.43937         0.69630
H         32.77697        54.13603         0.68253
H         30.68014        52.95010         0.43153
H         34.37118        18.37212         1.65724
H         34.44384        55.06374         0.84926
H         36.46385        17.15251         1.66939
H         36.54704        56.24957         1.06654
H         40.21170        14.98694         1.25181
H         38.09321        16.20723         1.51541
H         40.37900        58.35852         1.30447
H         38.22548        57.19022         1.21657
H         42.62720        14.96536         0.86988
H         42.85791        58.31672         1.41843
H         44.74807        16.15853         0.53470
H         44.97068        57.07610         1.51771
H         48.47343        18.33152         0.79491
H         46.36323        17.11855         0.84316
H         48.69255        54.86805         1.19394
H         46.60242        56.09536         0.94263
H         50.12038        19.25576         0.11835
H         50.25863        53.85344         1.98990
H         52.20974        20.45894        -0.02725
H         52.37842        52.66710         1.73759
H         55.99172        22.56265         0.01731
H         53.88656        21.37433         0.20803
H         56.12300        50.57261         1.09504
H         54.03363        51.73101         1.53442
H         57.64189        23.50562        -0.05029
H         57.74190        49.71442         0.48995
H         59.75672        24.74431        -0.20331
H         60.98824        26.87256        -0.42196
H         61.00423        29.30699        -0.70054
H         60.99669        31.16996        -0.98015
H         60.98419        33.46049        -1.79326
H         60.97998        35.46360        -2.00548
H         61.01524        37.78148        -1.29332
H         61.01272        39.61019        -0.69962
H         61.03471        41.99780        -0.32762
H         61.06968        43.89519        -0.23287
H         61.07349        46.32457         0.08799
H         59.85367        48.46188         0.31480
