         280
 CSIRO Nanostructure Databank - Neutral Graphene Oxide Data Set
C         30.43404        31.63773        -1.76101
C         30.53425        32.87760        -1.73570
C         30.65055        36.11717        -1.72156
C         30.71602        37.31288        -1.26476
C         30.58422        39.91268         1.02397
C         30.61945        40.96837         1.66394
C         32.69870        28.83107        -0.71081
C         31.67910        29.39791        -1.12517
C         32.87449        31.55486        -1.35498
C         31.57404        30.73229        -1.71633
C         32.80402        33.03322        -1.24533
C         31.63033        33.73890        -1.39622
C         32.71355        35.84816        -0.29892
C         31.54721        35.17076        -1.02000
C         32.72872        37.37024         0.03794
C         31.53737        38.14495        -0.56456
C         32.75416        40.28917        -0.02231
C         31.37740        39.58486        -0.24802
C         32.82859        41.59369         0.72134
C         31.24765        42.27041         1.35050
C         32.89304        43.76358         2.49098
C         31.81217        43.19775         2.32369
C         35.43682        27.34859         0.14028
C         35.16764        28.71474         0.09346
C         33.91973        29.42139        -0.14826
C         35.33050        31.56249        -0.59829
C         33.99333        30.90512        -0.55347
C         35.36443        33.02441        -0.95034
C         34.08020        33.85881        -1.18638
C         35.28253        35.87853        -0.27149
C         34.01344        35.03468        -0.14746
C         35.28307        37.36792        -0.60956
C         34.00799        38.14362        -0.28179
C         35.24985        40.40544        -0.34294
C         34.01048        39.49885        -0.17743
C         35.29743        41.54569         0.69230
C         34.16206        42.08550         1.22876
C         35.51114        44.04109         2.29169
C         34.24218        43.26797         2.17805
C         35.75484        45.47276         2.52692
C         37.80507        27.17732        -0.10024
C         36.45406        26.62842         0.35373
C         37.76457        28.69066         0.20626
C         36.44727        29.47251         0.22353
C         37.81131        31.56214        -0.42043
C         36.45761        30.90194        -0.17663
C         37.75075        33.02445         0.10513
C         36.57942        33.77628        -0.50651
C         37.75729        35.89362         0.25176
C         36.47791        35.23180        -0.23457
C         37.78026        37.37389        -0.02898
C         36.44045        38.08096         0.13806
C         37.79281        40.18267         0.43323
C         36.59283        39.54325        -0.33451
C         37.83773        41.66574         0.32357
C         36.55088        42.40335         0.55629
C         37.96085        44.35774         1.30967
C         36.75776        43.50893         1.58610
C         37.89747        45.91539         1.31890
C         36.71689        46.17353         2.21316
C         40.09026        24.83127         1.80313
C         39.10317        25.33936         1.20977
C         40.25228        27.27114         0.55630
C         39.01748        26.58260         0.55879
C         40.25629        28.68814         0.15116
C         39.06855        29.37007        -0.01188
C         40.34731        31.51917        -0.40126
C         39.06800        30.87015         0.16409
C         40.33892        33.02674        -0.18194
C         39.06744        33.76614        -0.11072
C         40.27364        35.92216        -0.16066
C         39.02780        35.13450        -0.08491
C         40.18455        37.32806        -0.76655
C         38.95755        38.07582        -0.22381
C         40.23875        40.22288        -0.27200
C         39.03186        39.48860        -0.08406
C         40.27821        41.60926        -0.03602
C         39.06768        42.35647         0.27535
C         40.44529        44.42166         0.87789
C         39.11088        43.74445         0.60306
C         40.39825        45.94212         0.83494
C         39.24339        46.54353         1.70637
C         40.20339        48.64838         0.86006
C         39.32229        48.01260         1.45034
C         42.59597        25.00142         2.43223
C         41.37140        25.42136         1.85563
C         42.71818        27.34074         0.94311
C         41.44476        26.69468         1.14010
C         42.75587        28.52341        -0.01941
C         41.53226        29.40963         0.14684
C         42.86242        31.49703        -0.01551
C         41.59429        30.78200         0.07304
C         42.87698        33.02234         0.02930
C         41.53614        33.68866        -0.22328
C         42.74894        35.85481        -0.86980
C         41.56059        35.16823        -0.26368
C         42.72771        37.35433        -0.88561
C         41.47498        38.11518        -0.59927
C         42.72453        40.24461        -0.86348
C         41.46947        39.48506        -0.58475
C         42.70319        41.76966        -0.86038
C         41.62025        42.31047         0.08741
C         42.72326        44.59587        -0.23197
C         41.43255        43.82945        -0.13513
C         42.65858        45.97019        -0.20970
C         41.42546        46.66374         0.25480
C         42.57047        48.75390        -0.18016
C         41.40907        48.16743         0.25688
C         43.65383        25.63212         2.17340
C         45.28394        27.17134         0.90469
C         43.91768        26.79093         1.42523
C         45.35369        28.68720         0.48599
C         44.06997        29.32075        -0.01995
C         45.37909        31.45704        -0.42814
C         44.04157        30.80669        -0.08005
C         45.33294        32.97371        -0.39476
C         44.02319        33.57969        -0.85369
C         45.35753        35.86026        -0.67080
C         44.07430        35.11071        -0.90158
C         45.30988        37.32774        -0.37760
C         44.00564        38.04434        -0.50292
C         45.25316        40.25865        -0.34973
C         44.02625        39.51626        -0.75409
C         45.21957        41.73217        -0.48373
C         44.04360        42.40962        -0.49434
C         45.21635        44.59239        -0.72860
C         44.05087        43.88655        -0.10747
C         45.12282        46.05807        -1.08299
C         43.87198        46.72628        -0.57285
C         43.59859        48.06020        -0.53610
C         47.30415        27.78091         2.26668
C         46.38526        27.06658         1.89307
C         47.53043        29.22775         1.97790
C         46.44228        29.61412         0.94065
C         47.71205        31.67838         0.52443
C         46.50864        30.87707         0.41056
C         47.72935        32.98316         0.10391
C         46.50724        33.70270        -0.22686
C         47.78158        35.85735         0.03122
C         46.58366        35.13503        -0.29063
C         47.73538        37.36602         0.24444
C         46.58668        38.06375        -0.45564
C         47.81029        40.28895        -0.27992
C         46.54024        39.51840        -0.18049
C         47.79274        41.63334        -0.49968
C         46.52815        42.45468        -0.24090
C         47.79829        44.57797        -0.64821
C         46.49308        43.81039        -0.97510
C         47.45856        45.95405        -0.51118
C         46.42717        46.65331        -0.50589
C         50.08020        29.02349         1.30224
C         48.87592        29.59764         1.42063
C         50.16027        31.40670         0.06116
C         49.01400        31.10435         1.06216
C         50.27581        32.94377        -0.08739
C         49.00400        33.72400        -0.04272
C         50.22456        35.82907         0.78146
C         48.98140        35.18222         0.20428
C         50.27033        37.35964         0.54722
C         49.07873        38.05297         0.08932
C         50.34376        40.23909        -0.29397
C         49.06804        39.56946         0.22054
C         50.34173        41.77679        -0.22236
C         49.06180        42.38175        -0.91049
C         50.31119        44.38874        -0.45031
C         48.97587        43.91162        -0.61257
C         51.29973        29.41443         1.01571
C         52.60293        31.54745         0.31659
C         51.52515        30.65441         0.49205
C         52.66962        32.78786         0.12647
C         51.55579        33.69246         0.17482
C         52.60329        35.96385         0.42261
C         51.52980        35.04388         0.36486
C         52.76730        37.19411         0.30751
C         51.63971        38.12454         0.44616
C         52.77334        40.42506        -0.07849
C         51.64251        39.48453        -0.16670
C         52.77934        41.65471        -0.17648
C         51.69543        42.49998        -0.76986
C         51.47451        43.95393        -0.40423
O         37.85258        43.51764         2.54430
O         44.89293        35.52982        -2.03845
O         44.45546        37.63702         0.83435
O         42.58704        36.58702        -2.11958
O         45.07706        28.78113        -0.94017
O         50.96945        38.05314         1.70263
O         36.37452        33.45828        -1.93626
O         32.77464        41.58365        -0.71870
O         43.47093        39.80919        -2.06912
O         35.15191        41.02039        -1.59595
O         31.59839        35.26548         0.45546
O         49.68735        33.38842        -1.35426
O         32.59904        30.98784        -2.68112
O         41.14405        35.81009         1.01105
O         39.97267        37.22232        -2.13562
O         35.12294        43.11867         3.32743
O         45.70212        39.92803         1.02920
O         33.60513        30.49929         0.79692
O         50.95683        39.60133        -1.44738
O         37.17963        29.12154         1.47819
O         30.58740        42.89846         0.32322
H         30.10323        42.24015        -0.21799
O         49.31612        31.78539         2.28880
H         48.59755        31.56724         2.92819
O         37.44328        33.00070         1.50827
H         38.22776        32.64874         1.99038
O         43.24686        33.41663         1.37992
H         42.44834        33.39612         1.94900
O         36.03232        37.96991         1.51912
H         36.59707        38.56747         2.06725
O         50.28996        42.13078         1.16046
H         49.80587        41.43709         1.66884
O         46.47025        43.52186        -2.38862
H         46.30773        44.36723        -2.86614
O         34.03428        34.47269         1.17393
H         33.10341        34.36060         1.47197
O         47.43085        37.59901         1.67905
H         46.46688        37.80222         1.75634
O         46.62980        42.71455         1.19295
H         46.51560        41.84109         1.63929
O         42.13360        41.98455         1.39425
H         41.74304        42.60546         2.05789
O         40.73609        44.02146        -1.39099
H         41.23510        43.54041        -2.09563
O         37.97126        31.47685        -1.85461
H         37.34816        32.11483        -2.28841
O         51.78152        42.39934        -2.16923
H         52.61915        42.80261        -2.47709
O         37.02677        39.48292        -1.70378
H         36.46724        40.18060        -2.17158
O         42.60999        27.93667        -1.33893
H         42.65783        28.65880        -2.00075
O         45.64782        31.15467        -1.82560
H         44.93822        31.60288        -2.34828
O         44.28019        43.95926         1.34774
H         45.17695        43.56953         1.53691
O         30.69871        40.22718        -1.30895
H         31.21599        41.03734        -1.54362
O         45.54607        26.36101        -0.23063
H         45.34473        26.89638        -1.03406
O         49.80802        30.84423        -1.19052
H         49.72387        31.57380        -1.84898
O         40.50012        31.32711        -1.82779
H         39.64134        31.53938        -2.26974
O         37.67069        35.79451         1.71055
H         36.87195        36.31051         1.98457
O         45.20068        46.19185        -2.51056
H         45.15777        47.14605        -2.73401
O         39.48373        46.23708         3.07997
H         40.19398        46.82168         3.41808
O         37.62078        46.31377        -0.00738
H         36.80402        45.87658        -0.32737
O         37.65547        39.94069         1.87404
H         38.28508        40.52305         2.35179
O         34.13833        34.47214        -2.48332
H         35.08642        34.59819        -2.72484
O         39.13290        31.06129         1.60252
H         38.45617        30.45616         1.99967
O         35.46995        37.38509        -2.03241
H         36.08245        38.13849        -2.25485
O         50.12773        35.62745         2.20449
H         50.59757        36.37623         2.64116
O         40.78671        44.05455         2.24034
H         40.20790        44.58075         2.85274
O         37.91381        27.04894        -1.51185
H         38.13106        26.12016        -1.73563
O         49.01362        39.82739         1.66509
H         48.40122        39.14643         2.04988
O         32.56820        37.47888         1.46264
H         31.88845        36.82267         1.73761
O         42.41528        42.18120        -2.21613
H         42.85473        41.52812        -2.81135
O         47.29556        30.02655         3.15773
H         47.73514        29.58713         3.91584
O         49.11709        42.20968        -2.32810
H         50.03890        42.37455        -2.64021
O         43.77021        33.12789        -2.20811
H         44.17272        33.79507        -2.81190
O         36.27869        43.18445        -0.65500
H         35.82608        42.53976        -1.29249
