         234
 CSIRO Nanostructure Databank - Neutral Graphene Oxide Data Set
C          1.22364         2.03034        -0.82497
C          1.17789         3.41813        -0.69529
C          2.41418         1.32620        -0.64372
C          2.34097         4.15893        -0.36754
C          1.10101         6.33493        -0.01641
C          1.10713         7.71874         0.11748
C          2.29369         5.59381        -0.14648
C          2.32174         8.45254         0.31396
C          1.16540        10.67420         0.56004
C          1.15944        12.02268         0.38775
C          2.35621         9.89559         0.40970
C          2.34667        12.75218        -0.18025
C          1.26625        14.97573         0.52400
C          1.29951        16.39496         0.54715
C          2.37855        14.23600         0.18815
C          2.47496        17.11469         0.30045
C          2.48070        18.55322         0.24131
C          3.60957         2.01313        -0.32666
C          3.55541         3.43094        -0.18716
C          4.85662         1.30211        -0.24397
C          4.76647         4.13059         0.22814
C          3.54323         6.35582        -0.10740
C          3.53758         7.75108         0.30675
C          4.87318         5.58253         0.00463
C          4.71811         8.42001         0.97588
C          3.62163        10.58392         0.33559
C          3.66209        12.02752         0.11277
C          4.80771         9.87602         0.53286
C          4.87096        12.70022         0.03576
C          3.62101        14.96205        -0.12677
C          3.70875        16.42559         0.08840
C          4.87674        14.15091        -0.29393
C          4.94545        17.11644         0.07996
C          3.63846        19.22956         0.00121
C          4.93289        18.58482        -0.02722
C          6.09336         1.92809        -0.06706
C          6.12207         3.36375         0.29038
C          7.33264         1.25343        -0.20944
C          7.32048         4.15146         0.07307
C          6.09667         6.24570         0.44973
C          6.04276         7.63052         0.92816
C          7.32257         5.55074         0.30444
C          7.37201         8.36398         1.03351
C          6.04958        10.62549         0.79258
C          6.13541        12.05205         0.37320
C          7.31835         9.87513         1.08627
C          7.34601        12.72065         0.39607
C          6.17370        14.89721        -0.28675
C          6.15811        16.34128         0.04312
C          7.44625        14.12694        -0.05578
C          7.40317        16.89486         0.38210
C          6.02475        19.42101        -0.31245
C          7.38341        19.06079        -0.02586
C          8.55852         1.95528        -0.29741
C          8.50723         3.43729        -0.42274
C          9.79737         1.31333        -0.34461
C          9.79225         4.19907        -0.52597
C          8.56160         6.32712         0.18220
C          8.57000         7.68317         0.49551
C          9.79414         5.65309        -0.20911
C          9.74056         8.50387         0.14005
C          8.62915        10.61072         1.05165
C          8.60673        12.10971         0.92134
C          9.88524         9.88317         0.71337
C          9.92907        12.82481         0.71593
C          8.71101        14.88211         0.12732
C          8.64820        16.30464         0.13625
C          9.91847        14.23130         0.27360
C          9.88767        17.09893        -0.21373
C          8.61013        19.38648        -0.55594
C          9.83169        18.63430        -0.23929
C         11.05907         2.00055        -0.45305
C         11.08145         3.45852        -0.52650
C         12.25150         1.29879        -0.29541
C         12.26145         4.16088        -0.51014
C         10.98606         6.33365        -0.33414
C         10.97569         7.79420        -0.36643
C         12.30060         5.61802        -0.11737
C         12.26836         8.52980        -0.54022
C         11.18796        10.63288         0.54919
C         11.21099        12.10292         0.53819
C         12.39483         9.91211        -0.00281
C         12.40405        12.79502         0.28004
C         11.16800        14.99573         0.50665
C         11.13014        16.49430         0.45139
C         12.45131        14.25916         0.34841
C         12.45064        17.26835         0.39558
C         11.03928        19.26843        -0.37502
C         12.32688        18.59959        -0.31474
C         13.55562         1.92838        -0.48522
C         13.55303         3.48698        -0.64532
C         14.80023         1.33800         0.00913
C         14.78251         4.21814        -0.29657
C         13.56201         6.32732        -0.56819
C         13.55031         7.78367        -0.76801
C         14.76691         5.67320        -0.38969
C         14.80836         8.55467        -0.71081
C         13.57504        10.69666        -0.40138
C         13.58528        12.06553        -0.15827
C         14.76847         9.95110        -0.73629
C         14.87724        12.78078        -0.28651
C         13.61209        14.98277         0.09626
C         13.61778        16.42089        -0.09976
C         14.89229        14.27018        -0.11053
C         14.75594        17.06300        -0.55428
C         13.43531        19.21592        -0.79196
C         14.75239        18.52214        -0.98666
C         15.96021         2.08085         0.15738
C         15.93480         3.52945         0.01693
C         17.22166         1.42878         0.45322
C         17.12091         4.31334         0.41522
C         16.02300         6.40560        -0.33260
C         16.04617         7.83025        -0.56702
C         17.20467         5.73984         0.04097
C         17.24697         8.53773        -0.42959
C         16.00540        10.67055        -1.08327
C         15.96159        12.19041        -1.18412
C         17.31880         9.91405        -0.93058
C         17.30057        12.89942        -0.98642
C         16.08071        15.00806        -0.58758
C         16.01750        16.37673        -0.71113
C         17.30525        14.25704        -0.80083
C         17.28076        17.20202        -0.93496
C         15.92940        19.20337        -0.32805
C         17.13712        18.56211        -0.27684
C         18.40063         2.11204         0.64186
C         18.39668         3.58848         0.76043
C         19.67856         1.45198         0.75879
C         19.66744         4.33381         0.67781
C         18.42804         6.43416         0.26397
C         18.40420         7.89261         0.18145
C         19.65799         5.75707         0.54155
C         19.77611         8.67438         0.19845
C         18.62130        10.67071        -0.92419
C         18.59932        12.18252        -1.10001
C         19.83788        10.02670        -0.38001
C         19.83473        12.89475        -0.71379
C         18.59880        15.02205        -0.98189
C         18.51352        16.44164        -0.49068
C         19.80010        14.25556        -0.48652
C         19.58092        17.05690         0.11238
C         18.28253        19.15415         0.34415
C         19.47761        18.46266         0.51492
C         20.83969         2.16453         0.84129
C         20.86678         3.61062         0.77060
C         22.09604         4.32514         0.80291
C         20.91854         6.46172         0.53029
C         20.99345         7.86761         0.25840
C         22.11252         5.69815         0.70138
C         22.21146         8.54973         0.00545
C         21.06304        10.67304        -0.45132
C         21.15097        12.15056        -0.83720
C         22.25060         9.91280        -0.23543
C         22.23982        12.87796        -0.09431
C         20.93494        14.95466         0.04470
C         20.83287        16.33841         0.37337
C         22.12167        14.16991         0.29947
C         21.90329        17.04955         0.94881
C         20.60403        19.09655         1.11389
C         21.78627        18.40207         1.31031
O         18.83183        11.29404        -2.25002
O          9.46371        10.03759         2.10303
O          4.11981        14.52963        -1.49580
O          9.25171        12.75554         2.05509
O         18.90651         8.58539         1.37413
O         12.18087         9.99953         1.44299
O          8.99091         3.92301        -1.73758
O         15.30840        13.34052         0.98165
O         10.97288        15.84778         1.73784
O          6.78597         7.74256         2.20720
O          6.51347        10.37676         2.19511
O          6.97054        14.42952        -1.43496
O         16.65289        10.05458        -2.23674
O         13.68842         2.60636        -1.78664
O          4.41405         6.05661        -1.29765
O         12.73107         8.31960        -1.89999
O         17.50516         4.08309         1.82266
O         10.00584         8.41342        -1.29682
O          7.43968        18.12479         1.02812
O          5.34691         3.70282         1.48819
O         18.78719        15.10315        -2.45351
H         19.73736        15.28574        -2.61922
O         17.44227        17.44147        -2.37127
H         17.77605        16.59140        -2.76168
O         12.44447         5.61226         1.35864
H         11.67815         5.13314         1.74094
O         10.10590        16.75557        -1.63005
H          9.32611        17.05661        -2.14319
O         14.95562        18.54921        -2.42971
H         15.86235        18.19477        -2.62361
O         15.53006        12.48771        -2.53664
H         16.05091        11.90549        -3.13511
O         12.80923        17.61028         1.76299
H         12.40505        16.91754         2.33956
O         21.48356        12.18631        -2.26554
H         20.70107        11.80434        -2.73197
O          4.34073         8.49580         2.38587
H          5.15030         8.79727         2.86646
O          2.16322        12.71016        -1.63210
H          2.86173        13.30045        -2.01505
H          0.30497         1.48348        -1.07975
H          0.22511         3.93964        -0.85918
H          2.43146         0.23296        -0.75689
H          0.13284         5.81724        -0.07270
H          0.14747         8.25282         0.12166
H          0.23411        10.16691         0.85205
H          0.21268        12.56752         0.50474
H          0.30482        14.48486         0.72822
H          0.36800        16.94388         0.74457
H          1.52816        19.09228         0.34453
H          4.84032         0.22179        -0.45481
H          3.61624        20.32535        -0.09475
H          7.33631         0.15659        -0.30047
H          5.80492        20.43467        -0.68517
H          9.82266         0.21554        -0.26777
H          8.70390        20.23732        -1.24881
H         12.21743         0.23723        -0.00659
H         11.05103        20.34582        -0.60654
H         14.80295         0.27123         0.28067
H         13.34222        20.21239        -1.25242
H         17.24014         0.32822         0.43416
H         15.81780        20.20900         0.10646
H         19.70172         0.35232         0.76956
H         18.19998        20.18570         0.71980
H         21.80097         1.63737         0.92902
H         23.03769         3.76960         0.91746
H         23.08046         6.21466         0.74592
H         23.16303         8.00317         0.04996
H         23.22818        10.39753        -0.35741
H         23.18592        12.35134         0.09580
H         22.97091        14.63996         0.81535
H         22.86082        16.54443         1.13258
H         20.52394        20.15168         1.41209
H         22.64897        18.90988         1.76361
