         640
 CSIRO Nanostructure Databank - Neutral Graphene Oxide Data Set
C         23.07366        27.41996         0.53450
C         23.08009        28.78663         0.69132
C         23.07691        31.71162         0.97656
C         23.09224        33.10173         1.09748
C         23.03730        36.03578         0.98079
C         23.02771        37.36563         0.68676
C         23.01573        40.31244         0.62796
C         23.00910        41.69750         0.48381
C         22.99496        44.68570         0.19031
C         23.06785        46.03583         0.28319
C         25.49190        24.57525         0.45169
C         24.30417        25.27091         0.40104
C         25.51395        27.36512         0.80907
C         24.28767        26.67856         0.57753
C         25.50784        28.79450         0.94395
C         24.29354        29.51036         0.88151
C         25.49292        31.69432         1.02593
C         24.27609        30.97560         0.95592
C         25.51707        33.11678         1.01976
C         24.28891        33.82506         1.10264
C         25.52563        36.00838         0.78665
C         24.30643        35.32094         1.35758
C         25.48617        37.40960         0.51078
C         24.23188        38.12561         0.54635
C         25.40524        40.27954         0.17688
C         24.20443        39.56596         0.43220
C         25.42118        41.68783         0.17773
C         24.19813        42.40573         0.26558
C         25.45888        44.53733         0.57835
C         24.24589        43.88212        -0.08433
C         25.53463        46.01427         0.26676
C         24.33245        46.73594         0.21900
C         25.54604        48.85025         0.07624
C         24.37373        48.17577         0.13388
C         28.00465        23.07629         0.67259
C         27.98600        24.48226         0.74575
C         26.72618        25.23696         0.71003
C         27.99700        27.33470         1.32011
C         26.73041        26.62815         0.88564
C         27.98935        28.81826         1.02165
C         26.77602        29.48974         1.05287
C         28.05978        31.71433         1.03342
C         26.74573        30.95245         1.20239
C         27.96823        33.13417         0.65828
C         26.76270        33.82997         0.79974
C         27.89733        35.96104         0.20976
C         26.72323        35.28033         0.59859
C         27.89417        37.37571         0.02895
C         26.67465        38.09283         0.15512
C         27.89833        40.27512        -0.15650
C         26.60659        39.52835        -0.32588
C         27.92790        41.65680         0.04467
C         26.69322        42.40730         0.12848
C         27.97685        44.49996         0.31391
C         26.73762        43.79314         0.26652
C         27.99327        45.92937         0.36488
C         26.78596        46.66149         0.23809
C         27.94335        48.73164         0.96555
C         26.88358        48.15587         0.00458
C         28.04836        50.23291         0.90207
C         30.44113        23.03494         0.56098
C         29.19572        22.36858         0.57257
C         30.43675        24.43873         0.70167
C         29.22769        25.17100         0.79051
C         30.39090        27.34103         0.57975
C         29.24720        26.62808         0.87248
C         30.42642        28.78676         0.51662
C         29.23743        29.51996         0.78913
C         30.43020        31.63824         0.31512
C         29.25822        30.93893         0.68092
C         30.37747        33.07519         0.16419
C         29.18126        33.77268         0.24289
C         30.38027        35.94265        -0.22538
C         29.08611        35.18116        -0.28063
C         30.34734        37.35910        -0.35647
C         29.11356        38.06096        -0.28531
C         30.40848        40.18728        -0.15847
C         29.12915        39.53415        -0.58830
C         30.37331        41.50756         0.55530
C         29.17506        42.36270         0.21110
C         30.45402        44.48980         0.51340
C         29.20905        43.75791         0.33674
C         30.47446        45.87290         0.57573
C         29.25204        46.63751         0.51770
C         30.51199        48.72102         0.94978
C         29.27673        48.01888         0.75548
C         30.47923        50.15597         1.26397
C         29.20007        50.88110         1.11278
C         32.86641        20.27861        -0.33831
C         31.70977        20.93973         0.06072
C         32.94617        23.02379         0.30457
C         31.70091        22.31823         0.33975
C         32.97048        24.45487         0.42838
C         31.72849        25.19759         0.85845
C         32.86301        27.30590        -0.09354
C         31.60663        26.56812         0.22534
C         32.84584        28.77355        -0.09098
C         31.63409        29.48147         0.15630
C         32.85066        31.59690        -0.30339
C         31.64365        30.91521         0.06471
C         32.85794        33.05694        -0.41755
C         31.68761        33.82275         0.15605
C         32.77582        35.95762        -0.62201
C         31.59544        35.25739        -0.30318
C         32.79177        37.36723        -0.67571
C         31.58352        38.07084        -0.48933
C         32.86538        40.21067        -0.30399
C         31.59209        39.49906        -0.28023
C         32.88871        41.57821        -0.09210
C         31.71106        42.25074         0.49430
C         33.00807        44.45189         0.31235
C         31.73079        43.73870         0.59110
C         33.05409        45.84876         0.80467
C         31.74513        46.58728         0.88506
C         32.99624        48.78629         0.71187
C         31.75660        48.06971         0.87767
C         32.98970        50.20204         0.66131
C         31.81258        50.94005         1.13927
C         32.87995        53.05019         0.49881
C         31.79009        52.39297         0.97608
C         35.21466        19.07045        -1.57393
C         35.31252        20.31003        -0.93503
C         34.10131        20.95792        -0.42195
C         35.44395        22.97182         0.09487
C         34.13885        22.30785        -0.01618
C         35.44402        24.49408         0.20199
C         34.14729        25.19030         0.20620
C         35.34215        27.31822        -0.25163
C         34.14767        26.59708         0.00571
C         35.29034        28.71408        -0.47176
C         34.06183        29.44350        -0.35953
C         35.28469        31.56507        -0.77633
C         34.04128        30.87310        -0.52753
C         35.25846        33.02872        -1.14177
C         33.97144        33.73470        -0.81062
C         35.28116        35.93600        -0.92861
C         33.96556        35.20972        -1.13697
C         35.27310        37.38281        -0.96782
C         34.05376        38.09115        -0.81531
C         35.30019        40.24178        -0.76021
C         34.06482        39.49808        -0.66126
C         35.29883        41.63459        -0.72514
C         34.00199        42.39354        -0.68988
C         35.38689        44.51090        -0.29287
C         34.11372        43.80342        -0.15024
C         35.44126        45.90241        -0.04026
C         34.37647        46.60621         0.77269
C         35.39343        48.78422         0.11665
C         34.23994        48.08575         0.44758
C         35.37157        50.23304        -0.03212
C         34.12537        50.94484         0.19597
C         35.24073        53.12718        -0.33955
C         34.07460        52.35381         0.11986
C         35.37402        54.56340        -0.05064
C         37.55652        19.16152        -2.14574
C         36.32409        18.52258        -2.22443
C         37.77567        20.34899        -1.39912
C         36.58484        20.98228        -0.89710
C         37.86393        23.04194        -0.52424
C         36.65677        22.32014        -0.42635
C         37.86907        24.47988        -0.39116
C         36.65593        25.21196        -0.20761
C         37.83190        27.33499        -0.51477
C         36.60970        26.60675        -0.35210
C         37.82177        28.74949        -0.62163
C         36.52248        29.41963        -0.98117
C         37.75276        31.64973        -0.66210
C         36.49927        30.90844        -0.75575
C         37.71868        33.02889        -0.62091
C         36.41604        33.77480        -0.48259
C         37.74863        35.90794        -1.24832
C         36.45386        35.23086        -0.88972
C         37.75484        37.39414        -0.99693
C         36.52637        38.10033        -0.95853
C         37.78827        40.23305        -0.89205
C         36.54134        39.51903        -0.88797
C         37.80329        41.65150        -0.94639
C         36.51285        42.39317        -1.17879
C         37.78779        44.50573        -0.77873
C         36.55330        43.81855        -0.68723
C         37.78354        45.91787        -0.69630
C         36.60866        46.62573        -0.36814
C         37.78515        48.78764        -0.50247
C         36.62928        48.07870        -0.24356
C         37.86613        50.20896        -0.01199
C         36.55927        50.92379        -0.23274
C         37.84347        53.11555        -0.39068
C         36.57936        52.35857        -0.50215
C         37.82727        54.52071        -0.35141
C         36.56636        55.20409        -0.14024
C         40.57496        15.91903        -1.55244
C         39.55933        16.60185        -2.20304
C         40.44707        18.77789        -1.41151
C         39.52398        18.00390        -2.14319
C         40.33926        20.22222        -1.22347
C         39.08049        20.95639        -1.20376
C         40.30378        23.08979        -0.82315
C         39.08823        22.34667        -0.83642
C         40.32375        24.49240        -0.64347
C         39.08288        25.20087        -0.52086
C         40.29255        27.35630        -0.46099
C         39.06990        26.62789        -0.49430
C         40.26985        28.77863        -0.42475
C         39.02149        29.47744        -0.55149
C         40.21081        31.60399        -0.26706
C         39.01712        30.92488        -0.51284
C         40.20401        33.06873        -0.07128
C         38.91644        33.81743        -0.31453
C         40.17370        35.92692        -0.69149
C         38.96625        35.23261        -0.69111
C         40.21875        37.34348        -0.79910
C         38.99337        38.07619        -0.87273
C         40.26650        40.22418        -0.79396
C         39.01419        39.51169        -0.82907
C         40.26918        41.64845        -0.86347
C         39.02673        42.36318        -0.93006
C         40.27853        44.50629        -0.96386
C         39.03303        43.79362        -0.95565
C         40.29074        45.92983        -1.01984
C         38.99811        46.63569        -1.10370
C         40.29101        48.88834        -1.25842
C         38.96727        48.14260        -1.10415
C         40.27120        50.28980        -0.70357
C         39.08823        50.96703        -0.46287
C         40.30081        53.11428        -0.52477
C         39.07863        52.39959        -0.41451
C         40.29499        54.54394        -0.52204
C         39.06756        55.25261        -0.41097
C         40.29152        57.36780        -0.47806
C         39.10415        56.68212        -0.39934
C         42.77669        15.96225        -0.45643
C         41.63566        16.64809        -0.97074
C         42.78215        18.79428        -0.56455
C         41.60726        18.07777        -0.94750
C         42.78172        20.22712        -0.65071
C         41.55302        20.89955        -0.93119
C         42.86629        23.12266        -0.71406
C         41.56448        22.36976        -1.02040
C         42.79156        24.54715        -0.37535
C         41.55578        25.22397        -0.50095
C         42.73957        27.36385        -0.16026
C         41.53165        26.64987        -0.37320
C         42.72750        28.79163        -0.13611
C         41.49490        29.49452        -0.29034
C         42.70295        31.62017        -0.06601
C         41.48271        30.92109        -0.21584
C         42.69945        33.10549         0.17975
C         41.45709        33.77734        -0.30086
C         42.78523        35.92030        -0.73171
C         41.43740        35.15505        -0.69516
C         42.76185        37.36102        -0.58248
C         41.46049        38.06549        -0.33304
C         42.73438        40.21869        -0.68320
C         41.49378        39.52624        -0.67811
C         42.73066        41.63644        -0.79216
C         41.51304        42.35395        -0.85216
C         42.74534        44.52011        -0.74647
C         41.51274        43.79452        -0.89236
C         42.72978        45.94816        -0.68545
C         41.49892        46.66434        -0.86645
C         42.72920        48.79856        -0.70550
C         41.51359        48.09185        -0.84515
C         42.74263        50.25028        -0.75638
C         41.52065        50.98542        -0.72933
C         42.77506        53.10111        -0.75011
C         41.53469        52.40158        -0.63486
C         42.77446        54.55173        -0.73869
C         41.53899        55.25189        -0.61870
C         42.76444        57.37765        -0.65188
C         41.53405        56.67659        -0.58378
C         43.90017        16.65582        -0.09028
C         45.19270        18.78764        -0.02003
C         43.95756        18.07794        -0.20704
C         45.20359        20.20836        -0.06305
C         43.99793        20.93857        -0.34900
C         45.18977        23.06165         0.15877
C         44.04224        22.35603        -0.29592
C         45.14578        24.47547         0.34536
C         43.96510        25.21743         0.04966
C         45.12075        27.37858         0.44123
C         43.95431        26.66099         0.12943
C         45.15422        28.79569         0.33746
C         43.94350        29.50701         0.05171
C         45.17730        31.65599         0.18534
C         43.93507        30.93338         0.05214
C         45.20319        33.07925         0.04334
C         43.98949        33.80641        -0.15503
C         45.23734        35.92365        -0.34479
C         44.01136        35.17864        -0.38325
C         45.21522        37.32978        -0.46351
C         43.98012        38.06232        -0.50240
C         45.22382        40.22352        -0.43957
C         43.98228        39.49798        -0.56538
C         45.22748        41.64066        -0.44765
C         44.03179        42.36913        -0.99734
C         45.16585        44.52298        -0.29555
C         43.97394        43.82516        -0.61717
C         45.13651        45.94079        -0.20888
C         43.94632        46.65925        -0.46400
C         45.19603        48.82162        -0.46340
C         43.95372        48.10047        -0.51279
C         45.21894        50.22937        -0.68524
C         43.97131        50.95115        -0.79109
C         45.23692        53.08540        -1.24384
C         43.96850        52.37386        -0.87225
C         45.25132        54.55776        -0.90100
C         43.99680        55.27373        -0.80089
C         43.95927        56.69390        -0.74820
C         47.61568        18.77200         0.24673
C         46.42293        18.09541         0.16021
C         47.65692        20.19402         0.23336
C         46.43250        20.91228         0.13990
C         47.65211        23.01856         0.49572
C         46.43594        22.33886         0.29587
C         47.65149        24.42450         0.93551
C         46.29670        25.16708         0.94976
C         47.59605        27.38319         0.90212
C         46.26507        26.69038         1.13879
C         47.59886        28.75153         0.75699
C         46.37901        29.50934         0.51953
C         47.62279        31.67372         0.43434
C         46.39490        30.93256         0.38997
C         47.65720        33.05933         0.27631
C         46.43874        33.79820         0.06034
C         47.68636        35.95302         0.01023
C         46.46184        35.20648        -0.11969
C         47.69804        37.32935        -0.09586
C         46.50891        38.07021        -0.64455
C         47.62574        40.21821         0.10457
C         46.44813        39.52368        -0.25250
C         47.58635        41.62442         0.19817
C         46.40299        42.35209        -0.11207
C         47.61136        44.52148         0.15778
C         46.39553        43.79897        -0.05577
C         47.63123        45.93843         0.11818
C         46.34109        46.69459         0.28060
C         47.64336        48.79832        -0.17492
C         46.41037        48.12289        -0.19973
C         47.69310        50.21724        -0.43448
C         46.46183        50.93788        -0.68473
C         47.71164        53.06583        -0.84603
C         46.49200        52.34398        -0.85031
C         47.69125        54.46006        -0.91308
C         46.48134        55.19176        -0.86131
C         50.15135        20.23377         0.27628
C         48.90192        20.90831         0.30668
C         50.12909        23.05378         0.52562
C         48.89814        22.32871         0.42812
C         50.11858        24.49820         0.70428
C         48.90295        25.18474         0.92718
C         50.12138        27.39095         0.95844
C         48.85761        26.64942         1.34559
C         50.14365        28.74819         0.76977
C         48.87533        29.49892         0.90160
C         50.16263        31.64487         0.29999
C         48.89832        30.98257         0.71651
C         50.11312        33.06823         0.06751
C         48.92694        33.75569         0.21392
C         50.19193        35.93633         0.01882
C         48.93586        35.23844         0.47601
C         50.15158        37.38856         0.10476
C         48.91400        38.07846         0.13830
C         50.09265        40.16074         0.62134
C         48.88463        39.48786         0.30173
C         50.05531        41.62182         0.91112
C         48.72416        42.37937         0.82686
C         50.05560        44.50279         0.32879
C         48.84882        43.81175         0.33212
C         50.08730        45.93069         0.25684
C         48.85139        46.64631         0.16783
C         50.10465        48.77196         0.12795
C         48.86897        48.08136         0.06220
C         50.12424        50.20023        -0.05469
C         48.92011        50.88988        -0.39479
C         50.16676        53.04257        -0.20817
C         49.02591        52.32016        -0.87514
C         51.33319        20.92985         0.36033
C         52.61736        23.05541         0.54348
C         51.35782        22.34815         0.48639
C         52.61439        24.48192         0.62064
C         51.37355        25.17759         0.74954
C         52.65862        27.39706         0.86464
C         51.37745        26.62512         1.02545
C         52.58733        28.84300         0.58368
C         51.37722        29.50664         0.54541
C         52.62142        31.60651        -0.25130
C         51.34882        30.93793         0.26952
C         52.63146        33.11026        -0.14698
C         51.32544        33.77516        -0.50059
C         52.60960        35.95904        -0.74313
C         51.33364        35.26645        -0.28907
C         52.57448        37.52922        -0.58597
C         51.35445        38.11000         0.10320
C         52.63036        40.16149         0.60221
C         51.32511        39.47930         0.44385
C         52.64805        41.64955         0.76471
C         51.34445        42.38645         0.83122
C         52.59604        44.53258         0.52257
C         51.35274        43.74927         0.17316
C         52.54894        45.91848         0.60649
C         51.31904        46.63891         0.40846
C         52.56421        48.79529         0.47691
C         51.32488        48.06625         0.36753
C         52.56150        50.21927         0.34465
C         51.33374        50.91871         0.12101
C         51.27380        52.36654         0.16729
C         55.06228        23.07583         0.48073
C         53.86406        22.38622         0.49588
C         55.09590        24.49594         0.45492
C         53.86498        25.17734         0.52306
C         55.12508        27.37332         0.14147
C         53.84257        26.64385         0.35597
C         55.18836        28.82326         0.48976
C         53.85959        29.58852         0.60921
C         55.09590        31.68842         0.23914
C         53.88720        30.99753         0.28180
C         55.09705        33.12249         0.06683
C         53.83346        33.82752        -0.07448
C         55.07705        35.96117        -0.15147
C         53.85528        35.26531        -0.21308
C         55.09196        37.41406        -0.14556
C         53.87577        38.13060        -0.10552
C         55.10021        40.24318         0.18843
C         53.88568        39.50071         0.18752
C         55.08999        41.69564         0.31100
C         53.88372        42.40204         0.47284
C         55.08179        44.55189         0.58078
C         53.84369        43.82017         0.54530
C         55.06759        45.95245         0.73506
C         53.77798        46.65886         1.07538
C         55.01092        48.82322         0.74841
C         53.79071        48.12040         0.71341
C         54.98881        50.23416         0.57414
C         53.80252        50.91072         0.40340
C         57.62122        24.55822         0.46549
C         56.37416        25.21938         0.36557
C         57.59664        27.35291         0.10472
C         56.39732        26.62741         0.19040
C         57.59923        28.81883        -0.30387
C         56.37793        29.57580         0.14398
C         57.60005        31.69653         0.10742
C         56.35924        30.96343         0.21085
C         57.57833        33.10755         0.09981
C         56.31982        33.82670         0.04440
C         57.55725        35.98251         0.02014
C         56.32026        35.25741        -0.02437
C         57.56874        37.40587        -0.01768
C         56.32049        38.13073        -0.06175
C         57.57704        40.30418        -0.30133
C         56.30974        39.54793        -0.01251
C         57.56615        41.74411         0.15669
C         56.33099        42.42510         0.28773
C         57.55082        44.55927         0.55074
C         56.32066        43.84134         0.46956
C         57.52952        45.97793         0.71307
C         56.28553        46.68155         0.77711
C         57.50812        48.78552         1.01284
C         56.27694        48.10835         0.87955
C         58.81457        25.26286         0.40530
C         60.05967        27.41099         0.18533
C         58.82919        26.66581         0.21600
C         60.06691        28.78967         0.14828
C         58.87155        29.55403         0.05611
C         60.05244        31.73333         0.20905
C         58.84652        30.96937         0.12358
C         60.03146        33.10299         0.21339
C         58.80825        33.83864         0.14061
C         60.00946        36.00808         0.22300
C         58.79717        35.26370         0.12600
C         60.01458        37.37808         0.21746
C         58.80540        38.12707         0.08541
C         60.01440        40.29979         0.21869
C         58.82669        39.54891         0.07163
C         60.01023        41.68342         0.26242
C         58.79263        42.43805         0.28221
C         60.00228        44.61461         0.60517
C         58.79588        43.86441         0.48546
C         59.98475        45.98050         0.77306
C         58.75340        46.69691         0.82713
C         58.71594        48.10238         1.00149
O         35.64931        23.64614         1.38429
O         48.91320        30.39355         2.07937
O         31.26810        50.50108         2.43836
O         50.73254        42.16121         2.12233
O         54.64606        29.18555         1.79573
O         27.52509        31.41189         2.36395
O         52.81803        40.77605         1.93234
O         54.24713        27.07756        -0.99967
O         52.22542        26.99253         2.19554
O         38.69329        47.40074        -2.35018
O         38.57362        18.63638        -2.95090
O         31.94349        42.90300         1.80909
O         52.38763        38.08959        -1.88449
O         42.42582        22.86408        -2.10060
O         42.17064        35.41670        -1.97966
O         35.75104        52.74082        -1.65084
O         31.98771        26.68130        -1.16946
O         46.81467        24.54456         2.16045
O         32.38888        46.01448         2.10351
O         39.39782        33.55133         1.09468
O         45.99397        26.91550         2.55720
H         46.66122        26.37429         3.04563
O         36.14863        33.75962         0.95443
H         36.98458        33.97606         1.42222
O         44.24040        42.37396        -2.46998
H         43.45776        42.80756        -2.87301
O         45.25543        53.05497        -2.73191
H         46.13188        53.39791        -3.01218
O         25.25579        44.42344         2.01671
H         25.98393        44.90411         2.46356
O         48.94863        35.34463         1.94253
H         48.13159        34.91852         2.27864
O         24.47548        43.94078        -1.52357
H         23.76711        43.42870        -1.96624
O         35.48051        33.09740        -2.58514
H         34.84330        32.49120        -3.01781
O         46.14873        46.79717         1.75152
H         46.95850        47.21077         2.12063
O         36.45414        29.27945        -2.46100
H         35.56756        29.59213        -2.74174
O         46.73268        38.10970        -2.11265
H         46.81356        37.18163        -2.42104
O         26.39204        39.41711        -1.79113
H         27.28780        39.42104        -2.21406
O         52.63465        31.32043        -1.69920
H         52.03333        31.99488        -2.11734
O         37.84863        35.75671        -2.72830
H         38.67642        36.20455        -3.00791
O         51.45318        43.42254        -1.25515
H         51.50185        44.26407        -1.75583
O         34.90783        46.57712         2.13666
H         34.12491        46.51368         2.73452
O         27.40700        48.37127        -1.33975
H         26.78141        47.96143        -1.97321
O         28.82668        34.99432        -1.73347
H         28.64612        35.88170        -2.11173
O         24.40762        35.44704         2.82708
H         24.50984        36.40101         3.03096
O         33.80538        35.26026        -2.60437
H         34.57502        34.76339        -2.97810
O         40.49696        49.12295        -2.69029
H         40.00107        48.40832        -3.15978
O         27.49800        48.40680         2.31171
H         28.16629        48.74991         2.94174
O         28.01107        27.24622         2.79433
H         27.30905        27.84329         3.13118
O         31.89349        25.46817         2.29084
H         31.95195        24.60753         2.75659
O         36.36731        42.50843        -2.65191
H         35.44782        42.83713        -2.80789
O         42.61428        33.25030         1.66190
H         41.71064        32.97694         1.93573
O         30.14380        41.13057         1.95329
H         30.65482        41.78085         2.49576
O         57.56221        28.80429        -1.77943
H         58.35492        28.31448        -2.08534
O         33.61950        42.59552        -2.13107
H         33.48283        41.70099        -2.51420
O         29.12248        39.62604        -2.10171
H         29.89631        39.10935        -2.41799
O         38.04122        50.12475         1.45530
H         37.28263        49.61372         1.81285
O         48.25361        42.55288         2.20582
H         49.06215        42.66978         2.76004
O         52.73292        35.70535        -2.17656
H         52.59114        36.62966        -2.57705
O         48.81634        26.64579         2.81293
H         48.95928        27.56874         3.11579
O         41.34150        38.04720         1.16269
H         40.51515        38.52664         1.38990
O         32.01175        33.95010         1.59131
H         32.16907        33.04747         1.94217
O         49.37839        52.23559        -2.30807
H         50.21787        51.73122        -2.36758
O         51.19446        33.57145        -1.96458
H         51.75204        34.29576        -2.37528
O         53.70771        46.63343         2.55625
H         53.69268        45.69102         2.82983
O         57.63391        40.38886        -1.78613
H         58.45933        40.86849        -2.01335
H         22.12636        26.88615         0.37148
H         22.12507        29.32591         0.64425
H         22.10499        31.20185         0.95730
H         22.12797        33.61927         1.18525
H         22.07493        35.51807         1.09423
H         22.06012        37.86405         0.53008
H         22.07070        39.80179         0.85687
H         22.05351        42.23286         0.57371
H         22.01092        44.19393         0.18046
H         22.15025        46.63537         0.38634
H         25.47397        23.48902         0.29301
H         23.35860        24.74147         0.21553
H         25.52918        49.94591        -0.01650
H         23.41975        48.72498         0.12946
H         27.06473        22.50872         0.67652
H         27.11865        50.81280         0.80922
H         29.14765        21.27441         0.49680
H         29.20616        51.97883         1.17023
H         32.79987        19.20908        -0.57653
H         30.77695        20.36251         0.10724
H         32.83989        54.14302         0.40013
H         30.90815        52.95882         1.30292
H         34.25184        18.54922        -1.64452
H         34.48616        55.13738         0.24945
H         36.22631        17.60901        -2.82423
H         36.58297        56.28516         0.05376
H         40.61192        14.82082        -1.56431
H         38.78788        16.06809        -2.77267
H         40.29532        58.46738        -0.46386
H         38.16956        57.25437        -0.33160
H         42.75736        14.86429        -0.40395
H         42.75807        58.47685        -0.62586
H         44.77367        16.09885         0.27187
H         44.89381        57.26818        -0.80214
H         48.54302        18.19411         0.35042
H         46.43851        16.99854         0.19116
H         48.63143        55.02645        -0.93733
H         46.54912        56.28305        -0.75219
H         50.18877        19.14186         0.17147
H         50.15099        54.13831        -0.12871
H         52.27409        20.36645         0.32352
H         52.12985        52.92157         0.57615
H         55.99663        22.50080         0.43932
H         53.90065        21.28950         0.46569
H         55.92666        50.80504         0.57819
H         53.82865        52.00123         0.27842
H         57.66164        23.47019         0.60938
H         57.52581        49.87717         1.13238
H         59.76990        24.72664         0.49991
H         61.00834        26.86249         0.27366
H         61.03496        29.30344         0.23472
H         61.02312        31.22157         0.24742
H         60.99018        33.63491         0.25917
H         60.97023        35.48608         0.31316
H         60.97686        37.89943         0.30005
H         60.98018        39.78805         0.33087
H         60.97235        42.20067         0.37096
H         60.97262        44.10226         0.56182
H         60.92906        46.53661         0.86399
H         59.65997        48.65532         1.11103
