         344
 CSIRO Nanostructure Databank - Neutral Graphene Oxide Data Set
C          1.26249         3.78218        -1.72890
C          0.02538         4.44955        -1.55202
C          1.17679         6.66294        -1.65433
C         -0.04368         5.81170        -1.42505
C          1.13407         8.04267        -1.02677
C         -0.07014         8.71138        -0.81200
C          1.08124        10.69718         0.01056
C         -0.09967         9.99756        -0.25033
C          1.09457        12.02881         0.76467
C         -0.17869        12.84589         0.71270
C          1.09047        14.91379         1.15316
C         -0.15463        14.17475         0.94409
C          1.10554        16.27580         1.60701
C         -0.05026        16.87166         2.17414
C          1.18962        18.92049         2.52726
C          0.01520        18.14650         2.69096
C          1.17362        21.28551         2.35330
C          0.03453        22.10440         2.36500
C          1.13435        23.64374         0.83082
C          0.00180        23.24577         1.57236
C          1.09223        24.85813         0.01021
C         -0.05876        25.49179        -0.38085
C          1.12848        27.30142        -1.55560
C         -0.03672        26.75542        -1.07703
C          1.21394        28.58275        -2.20966
C          3.73232         3.81313        -1.66426
C          2.48098         4.49121        -1.60734
C          3.64465         6.59228        -1.05148
C          2.45587         5.90326        -1.38408
C          3.59303         7.98117        -0.75761
C          2.35562         8.71541        -0.73653
C          3.56051        10.80612        -0.04737
C          2.32035        10.07444        -0.28471
C          3.55486        12.11736         0.32928
C          2.26262        12.89499         0.28661
C          3.53029        14.97368         1.09254
C          2.30363        14.26454         0.93428
C          3.54302        16.36391         1.22995
C          2.31590        17.03882         1.51237
C          3.52300        19.25084         1.52985
C          2.31852        18.42994         1.86986
C          3.52178        20.74315         1.43590
C          2.31666        21.62675         1.61649
C          3.57289        23.28574         0.25266
C          2.31278        22.84996         0.91394
C          3.59350        24.62789        -0.39156
C          2.40014        25.55454        -0.27268
C          3.66826        27.21671        -1.61040
C          2.37297        26.44625        -1.51149
C          3.68072        28.50303        -2.18366
C          2.41889        29.13923        -2.53005
C          6.19333         3.83215        -1.60387
C          4.93942         4.49179        -1.46544
C          6.12861         6.54205        -0.83442
C          4.91689         5.88710        -1.07869
C          6.12859         7.91434        -0.32136
C          4.80606         8.64734        -0.27254
C          6.10324        10.76002         0.18251
C          4.86191        10.14415        -0.42172
C          6.07582        12.06270         0.62802
C          4.78620        12.75184         0.84549
C          6.07864        14.90591         1.62670
C          4.77385        14.18337         1.28587
C          6.08767        16.37276         1.26790
C          4.82393        17.13185         0.95936
C          6.02701        19.24735         1.45691
C          4.84714        18.55151         1.50266
C          6.09116        20.69572         1.48519
C          4.82753        21.50492         1.62484
C          6.03800        23.41741         0.60812
C          4.87157        22.74087         0.74163
C          6.05635        24.88311         0.24330
C          4.87203        25.34672        -0.54047
C          6.13815        27.29551        -1.31896
C          4.87987        26.60459        -1.15482
C          6.14038        28.57791        -1.98819
C          4.91015        29.16545        -2.37959
C          8.65365         3.84964        -1.60986
C          7.40643         4.51883        -1.48462
C          8.58593         6.66109        -1.05098
C          7.39307         5.93097        -1.13050
C          8.61296         8.02608        -0.60625
C          7.38231         8.69184        -0.31594
C          8.58153        10.74041         0.32502
C          7.35323        10.04923         0.04098
C          8.54233        12.08525         0.70406
C          7.29859        12.80642         0.83980
C          8.56431        14.95539         0.88372
C          7.29736        14.17087         1.10258
C          8.51410        16.33419         1.47759
C          7.29380        17.04812         1.38329
C          8.45912        19.26292         1.98675
C          7.34735        18.54997         1.17062
C          8.55324        20.68846         1.47509
C          7.28968        21.37403         1.35418
C          8.58336        23.44514         0.66052
C          7.29802        22.88563         1.26670
C          8.58072        24.73501         0.03852
C          7.36200        25.41641        -0.27253
C          8.62511        27.45496        -1.01077
C          7.34132        26.67001        -0.92338
C          8.60983        28.56938        -2.02981
C          7.36268        29.18944        -2.32522
C         11.10069         3.88885        -1.64637
C          9.87037         4.54799        -1.57445
C         11.12234         6.71838        -1.21554
C          9.83531         6.06030        -1.64728
C         11.10386         8.08923        -0.74019
C          9.84307         8.71746        -0.41733
C         11.05866        10.67315         0.44727
C          9.84353        10.04174         0.13796
C         11.07398        11.96638         1.14325
C          9.74951        12.74539         1.21360
C         11.02972        14.86259         1.39556
C          9.81720        14.20157         1.25320
C         11.05646        16.30041         1.53572
C          9.77755        16.98176         1.81053
C         11.06127        19.18247         1.71194
C          9.79286        18.50226         2.00240
C         11.02851        20.65580         1.61682
C          9.75073        21.35186         1.30859
C         11.04463        23.32469         0.44134
C          9.78422        22.72603         0.81893
C         11.04846        24.61843        -0.17405
C          9.82979        25.31477        -0.38828
C         11.03693        27.10836        -1.54441
C          9.85067        26.58033        -1.05998
C         11.05771        28.25319        -2.53005
C          9.77072        29.01357        -2.60645
C         13.55553         3.93901        -1.75317
C         12.33886         4.59739        -1.61185
C         13.58751         6.73199        -1.29611
C         12.32122         6.03537        -1.36858
C         13.58095         8.23955        -1.13635
C         12.30255         8.77093        -0.53800
C         13.51841        10.63300         0.53221
C         12.32057        10.05307         0.11900
C         13.56836        11.94024         1.28047
C         12.30818        12.75105         1.17528
C         13.51560        14.89117         1.32868
C         12.29299        14.13246         1.34427
C         13.51041        16.28574         1.46089
C         12.25508        17.01098         1.57833
C         13.51960        19.15814         1.35712
C         12.26004        18.46906         1.59946
C         13.55598        20.54398         1.15365
C         12.33148        21.35273         1.30339
C         13.52379        23.29638         0.35237
C         12.28576        22.67531         0.65735
C         13.52643        24.61281        -0.22210
C         12.29070        25.23589        -0.53020
C         13.49520        27.19259        -1.43870
C         12.28397        26.49575        -1.20782
C         13.46253        28.56372        -1.93639
C         12.26873        29.12180        -2.36097
C         15.99347         3.98783        -2.00209
C         14.80532         4.64735        -1.76650
C         16.05249         6.90568        -1.66431
C         14.77532         6.08503        -1.53589
C         16.00138         8.06701        -0.68829
C         14.83083         8.68590        -0.40377
C         16.03199        10.62459         0.64075
C         14.76795         9.79911         0.62613
C         16.02794        12.03448         0.79664
C         14.80343        12.72467         0.94917
C         16.04486        14.84560         1.30409
C         14.77117        14.21565         0.83007
C         16.02491        16.27092         1.77791
C         14.75034        17.01656         1.45081
C         16.01322        19.12413         1.16490
C         14.75970        18.41002         1.33458
C         16.02792        20.51153         0.93027
C         14.78065        21.24459         0.89339
C         16.03344        23.43044         0.68040
C         14.75936        22.62123         0.60223
C         16.00549        24.71129        -0.13104
C         14.75802        25.28793        -0.50209
C         15.95014        27.32741        -1.22522
C         14.73066        26.60143        -1.06507
C         15.90507        28.73134        -1.61656
C         14.67703        29.31490        -1.94356
C         18.48504         3.86989        -1.84060
C         17.29120         4.71862        -2.18683
C         18.47240         6.58585        -1.01145
C         17.31076         6.07107        -1.51102
C         18.55724         8.06305        -0.69902
C         17.26469         8.52407        -0.06869
C         18.57452        10.60417         0.58097
C         17.28818         9.89824         0.55845
C         18.59565        12.11319         0.59515
C         17.26460        12.76362         0.87080
C         18.52202        14.85178         1.38593
C         17.24565        14.14597         1.21123
C         18.50855        16.28621         1.35062
C         17.28263        16.99943         1.37684
C         18.48837        19.08163         0.92626
C         17.25545        18.38966         1.16930
C         18.46213        20.46808         0.58689
C         17.26730        21.18875         0.62697
C         18.47353        23.29703         0.17359
C         17.28958        22.62637         0.41255
C         18.48779        24.81705         0.18857
C         17.19878        25.40032        -0.36561
C         18.41837        27.45796        -1.20158
C         17.17219        26.70322        -0.93603
C         18.34249        28.93034        -1.31182
C         17.08990        29.51044        -1.57743
C         19.58299         4.37214        -1.23629
C         20.78062         6.29732        -0.22624
C         19.65926         5.76485        -0.83026
C         20.82811         7.64930         0.24788
C         19.76522         8.50463         0.10372
C         21.00300        10.64796         0.75871
C         19.76387         9.91307         0.49555
C         20.99311        11.91165         1.23150
C         19.69153        12.63539         1.53455
C         20.94877        14.88347         1.48722
C         19.73239        14.15463         1.44730
C         20.96212        16.25801         1.37995
C         19.74962        16.99919         1.28219
C         20.94496        19.20243         1.10581
C         19.72891        18.40739         1.08394
C         20.95102        20.48666         0.69409
C         19.72834        21.07769         0.03594
C         20.88192        23.26067        -0.27294
C         19.72354        22.58756         0.01946
C         20.88236        24.67535        -0.51593
C         19.75185        25.41846        -0.38755
C         20.85253        27.74179        -0.52988
C         19.74911        26.83411        -0.84908
C         20.73911        29.08908        -0.78002
C         19.52357        29.68003        -1.20585
O          5.36310         8.08970         0.94627
O         19.27570        26.88161        -2.25459
O          3.40484        19.96244         0.19901
O         10.29504        12.04438         2.38073
O          3.45308        23.42348        -1.21304
O          9.83852        17.61721         3.16248
O          4.55316        13.11310         2.27783
O         11.79238        21.32957         2.68150
O          1.15476        20.15987         3.17695
O         17.29446         8.60607         1.37789
O         19.78589        20.67313        -1.37882
H         19.76945        19.69251        -1.39963
O          2.66346        26.42064         0.86748
H          2.56554        25.89078         1.68618
O         16.11488        23.84800         2.08630
H         16.90103        24.44799         2.16035
O          1.20225         6.92272        -3.11941
H          1.24630         6.04699        -3.56049
O         18.99786        12.52845        -0.75283
H         18.44075        12.04538        -1.39877
O          8.64835        15.16889        -0.58892
H          8.66735        14.28334        -1.01146
O          2.31502        25.57127        -2.67180
H          2.31335        26.13304        -3.47416
O         19.30335        12.28492         2.88566
H         19.93239        12.70412         3.50802
O         13.68702        11.60297         2.71416
H         14.06814        10.68977         2.77250
O          5.89810        25.55178         1.59574
H          5.82801        26.51742         1.42272
O         18.63897         8.76899        -1.97791
H         19.45435         8.47081        -2.43241
O          4.83030        17.34266        -0.51062
H          4.21186        18.08742        -0.69485
O         14.69534         9.13716         1.95123
H         15.59235         8.73724         2.09950
O         11.20526        27.61481        -3.86237
H         12.07800        27.16617        -3.87173
O         17.38909         5.02685        -3.64522
H         18.32096         5.27910        -3.82174
O         16.05398        16.21279         3.25579
H         16.00383        17.13465         3.58742
O          4.78110        22.00368         2.99301
H          5.64909        22.45437         3.16515
O          1.34039        11.69915         2.15466
H          0.61852        11.11577         2.46673
O          7.23749        23.37530         2.65313
H          6.94951        24.32032         2.60371
O          7.98674        19.35590         3.34573
H          8.43797        18.64630         3.86146
O          9.73217         6.37132        -3.09092
H         10.54139         6.01950        -3.52021
O          4.99466        10.34776        -1.87147
H          4.78192        11.28324        -2.07279
O          2.00469        13.15833        -1.13024
H          2.56336        13.91217        -1.41297
O         18.49172        25.21359         1.62022
H         19.28745        24.81137         2.03031
O         16.06100         7.44297        -3.02770
H         16.31825         6.68705        -3.61287
O         14.73445        14.48297        -0.65185
H         15.55819        14.10299        -1.02826
O          7.64659        18.74258        -0.23315
H          6.93716        18.29109        -0.74453
O         13.65594         8.81229        -2.48081
H         14.47244         8.44287        -2.90476
O          6.21604        14.87850         3.08211
H          5.83820        14.01591         3.37829
O          8.72277        28.14693         0.29100
H          8.83068        27.45685         0.98016
H          1.28255         2.69244        -1.86724
H         -0.89601         3.85064        -1.50063
H         -1.02609         6.29164        -1.31836
H         -1.02658         8.22765        -1.05161
H         -1.07683        10.45577        -0.04244
H         -1.14847        12.34114         0.58647
H         -1.10194        14.73388         0.96230
H         -0.97582        16.28967         2.27529
H         -0.84339        18.59050         3.21105
H         -0.83332        21.81800         2.97278
H         -0.90782        23.86124         1.55209
H         -1.04172        25.06240        -0.13641
H         -0.98789        27.29540        -1.20159
H          0.28281        29.13392        -2.41282
H          3.74483         2.73701        -1.89268
H          2.45666        30.13034        -3.00568
H          6.20333         2.76013        -1.85225
H          4.92073        30.15547        -2.85949
H          8.66315         2.75354        -1.71194
H          7.35396        30.09763        -2.94755
H         11.12116         2.79083        -1.72223
H          9.73405        29.86811        -3.30104
H         13.56666         2.85097        -1.91619
H         12.24783        30.15629        -2.73477
H         15.98469         2.90120        -2.17522
H         14.64367        30.37342        -2.24119
H         18.45736         2.81210        -2.14347
H         17.02192        30.59417        -1.75545
H         20.44925         3.72526        -1.02900
H         21.65999         5.65655        -0.06671
H         21.73499         7.97909         0.77529
H         21.96072        10.12882         0.60214
H         21.94987        12.38714         1.49584
H         21.90682        14.35014         1.55773
H         21.92779        16.78055         1.35567
H         21.86567        18.75521         1.50690
H         21.88145        21.07063         0.73884
H         21.81979        22.71194        -0.43093
H         21.80567        25.14173        -0.88915
H         21.75858        27.33749        -0.05589
H         21.59856        29.74631        -0.58273
H         19.48165        30.76816        -1.35770
