         671
 CSIRO Nanostructure Databank - Neutral Graphene Oxide Data Set
C          6.20884        31.76412         0.53217
C          6.11872        33.10783         0.43179
C          8.38779        27.48638        -0.60626
C          8.38016        28.87387        -0.66305
C          7.29269        29.63183        -0.07437
C          8.22385        31.73866        -1.02385
C          7.23883        30.99609        -0.14088
C          8.35935        33.19537        -0.65779
C          7.04679        33.91436        -0.44880
C          8.41095        36.00042        -0.07069
C          7.20513        35.32565         0.01867
C          8.49072        37.39647         0.21859
C         10.78077        23.12727        -1.00938
C         10.75376        24.56118        -1.22499
C          9.54879        25.32003        -0.97175
C         10.64037        27.43952        -1.64087
C          9.49649        26.70289        -1.07099
C         10.73946        28.89778        -1.49099
C          9.53761        29.61731        -1.13330
C         10.74423        31.74942        -1.27803
C          9.53556        31.01269        -1.13032
C         10.80562        33.10903        -0.96965
C          9.57346        33.84256        -0.65941
C         10.82511        35.97889        -0.52357
C          9.63091        35.28574        -0.42458
C         10.88671        37.41014        -0.33832
C          9.68810        38.11023         0.07146
C         10.93828        40.22995         0.09107
C          9.74760        39.51287         0.27901
C         10.98362        41.64116         0.26010
C         13.25085        18.89788        -0.27429
C         13.17339        20.30189        -0.56179
C         11.97972        20.96228        -0.77509
C         13.18181        22.99877        -1.60024
C         11.92784        22.36458        -1.12468
C         13.19351        24.49271        -1.71785
C         11.94088        25.23374        -1.50756
C         13.19702        27.44037        -1.80740
C         11.95134        26.66714        -1.82751
C         13.17728        28.82341        -1.87498
C         11.93474        29.55147        -1.74397
C         13.24360        31.59558        -1.12208
C         11.98641        31.06483        -1.80423
C         13.29312        33.11761        -1.12336
C         12.09138        33.78682        -0.92804
C         13.37043        35.98896        -0.83188
C         12.09700        35.22742        -0.62193
C         13.23530        37.44679        -1.22955
C         12.07223        38.13062        -0.55486
C         13.34992        40.25613        -0.49886
C         12.13424        39.53297        -0.32602
C         13.37425        41.66848        -0.32923
C         12.15481        42.36796         0.03260
C         13.32501        44.54520        -0.02211
C         12.18203        43.78193         0.21590
C         13.36112        45.91973         0.26804
C         15.74646        14.96878         1.30060
C         15.70000        16.11325         0.59017
C         14.41553        16.70429         0.04524
C         15.70677        18.91186        -0.29623
C         14.44787        18.22045        -0.12615
C         15.71541        20.30593        -0.54616
C         14.44217        21.11891        -0.47405
C         15.73428        23.09683        -1.32510
C         14.49302        22.22859        -1.52201
C         15.75154        24.47214        -1.55903
C         14.47387        25.22955        -1.49954
C         15.72296        27.43446        -1.87650
C         14.46633        26.72380        -1.55835
C         15.69253        28.79104        -2.05633
C         14.45024        29.55998        -1.88879
C         15.78416        31.59941        -1.38190
C         14.46979        30.91517        -1.67447
C         15.77414        33.12221        -1.52849
C         14.56354        33.82010        -1.23969
C         15.76629        35.95999        -1.47094
C         14.57685        35.24448        -1.25311
C         15.74028        37.45307        -1.54666
C         14.53576        38.19261        -1.12992
C         15.80705        40.31524        -0.94786
C         14.57107        39.55507        -0.86271
C         15.78030        41.71946        -0.76916
C         14.57913        42.39760        -0.50735
C         15.82280        44.62398        -0.35094
C         14.52703        43.90491        -0.67591
C         15.81332        45.96774        -0.04076
C         14.56792        46.66282         0.22749
C         15.79687        48.73727         0.80885
C         14.58916        48.02923         0.55361
C         15.78347        50.07840         1.18929
C         18.26325        10.92908         2.81919
C         18.18202        12.11371         2.07569
C         16.98690        12.82902         1.96935
C         18.26488        14.78027         1.04702
C         17.03132        14.32027         1.79391
C         18.22243        16.22427         0.64377
C         16.93123        16.65403        -0.12190
C         18.14910        18.87675        -0.23083
C         16.94987        18.18360        -0.23142
C         18.15656        20.33753        -0.34194
C         16.91744        21.02128        -0.71023
C         18.19508        23.12119        -1.22737
C         16.95562        22.41487        -1.06627
C         18.20103        24.52351        -1.51709
C         16.98050        25.19646        -1.61334
C         18.25339        27.32225        -2.35335
C         16.95385        26.62022        -2.06063
C         18.24051        28.81241        -2.56057
C         16.92986        29.52614        -2.41794
C         18.23712        31.72133        -2.02465
C         16.86615        31.03867        -2.33980
C         18.17194        33.19815        -2.51098
C         16.96470        33.84487        -1.80008
C         18.27073        35.94709        -1.52836
C         16.96589        35.25416        -1.70559
C         18.29245        37.46007        -1.37945
C         17.02762        38.22163        -1.59556
C         18.26784        40.34698        -1.24334
C         17.04230        39.66400        -1.26125
C         18.30615        41.74506        -0.97255
C         17.01706        42.51816        -1.11478
C         18.26604        44.49735        -0.21228
C         17.06146        43.90026        -0.51393
C         18.33593        45.97424        -0.06232
C         17.07098        46.80705        -0.18784
C         18.21967        48.63911         1.17746
C         17.07633        48.05183         0.69113
C         18.20600        49.98316         1.74742
C         16.96978        50.75191         1.61309
C         18.07192        52.78682         2.50180
C         16.94301        52.11431         1.87256
C         18.18161        54.24301         2.48700
C         20.84953         7.78014         5.63737
C         20.81524         8.73197         4.58632
C         19.60232         9.29222         4.20684
C         20.73461        10.56846         2.36597
C         19.59245        10.55959         3.40560
C         20.73445        11.90804         1.60218
C         19.43426        12.65004         1.45278
C         20.71186        14.67185         0.61564
C         19.43469        14.07433         1.02841
C         20.74043        16.01764         0.22611
C         19.44180        16.69193        -0.16548
C         20.75424        18.91893        -0.16614
C         19.45027        18.20035        -0.00149
C         20.75070        20.31049        -0.65010
C         19.48537        21.06892        -0.61426
C         20.62365        23.00294        -1.64731
C         19.42425        22.38996        -1.23737
C         20.71022        24.39678        -1.74129
C         19.52048        25.28443        -1.45913
C         20.70412        27.35722        -2.48726
C         19.56158        26.64760        -2.16409
C         20.72044        28.82855        -2.52720
C         19.52679        29.55219        -2.46550
C         20.73482        31.64949        -2.14380
C         19.52682        30.97674        -2.34602
C         20.71333        33.11504        -1.74655
C         19.58358        33.90537        -2.45214
C         20.72672        35.98537        -1.69013
C         19.54432        35.30181        -1.86285
C         20.72839        37.41332        -1.44697
C         19.57044        38.15731        -1.48075
C         20.76499        40.33426        -1.06848
C         19.55547        39.66229        -1.66014
C         20.76194        41.65989        -0.68901
C         19.51419        42.40313        -0.68952
C         20.68463        44.32922         0.31117
C         19.51801        43.76323        -0.21889
C         20.58115        45.60968         1.10406
C         19.57691        46.58013         0.49222
C         20.54579        48.31381         2.09497
C         19.59409        48.04453         0.93648
C         20.54544        49.72619         2.60945
C         19.35992        50.56802         2.26051
C         20.64518        52.70384         2.98770
C         19.33947        51.96365         2.73855
C         20.66082        54.17234         2.69078
C         19.41355        54.90478         2.62687
C         20.63709        57.06116         2.59395
C         19.43323        56.32800         2.55089
C         20.68316        58.48165         2.50811
C         23.23597         6.22426         8.05936
C         22.04509         6.58657         7.44501
C         23.30924         7.83725         5.76116
C         22.05844         7.39985         6.27957
C         23.38798         8.64866         4.49271
C         22.07309         9.27007         4.03457
C         23.26421        11.07629         2.80010
C         22.04340        10.22276         3.05600
C         23.24352        11.98674         1.55468
C         22.01165        12.62634         1.31364
C         23.16481        14.60491         0.39544
C         21.94621        13.93813         0.74089
C         23.16103        15.95681        -0.04833
C         21.96155        16.69146        -0.08099
C         23.15756        18.80876        -0.59029
C         21.98370        18.12095        -0.35992
C         23.18372        20.23449        -0.85498
C         21.91636        20.91136        -1.04196
C         23.12468        23.05694        -1.55426
C         21.90485        22.20428        -1.82236
C         23.21226        24.34483        -2.31608
C         22.02025        24.96244        -1.64300
C         23.32686        27.39379        -2.97632
C         21.91960        26.77850        -3.17004
C         23.22414        28.82691        -2.46344
C         21.99633        29.51789        -2.43285
C         23.20411        31.65798        -2.00483
C         21.98598        30.94971        -2.19646
C         23.21291        33.10892        -1.85120
C         22.03231        33.82602        -1.91971
C         23.27704        35.97404        -1.47438
C         22.04776        35.33127        -2.08014
C         23.29724        37.35542        -1.26420
C         22.01199        38.08111        -1.13331
C         23.28408        40.30331        -0.93756
C         22.00191        39.54854        -0.91005
C         23.24105        41.65946        -0.37033
C         21.99194        42.31695        -0.25711
C         23.15627        44.28086         0.66291
C         21.94078        43.63847         0.26086
C         23.11664        45.63624         1.18722
C         21.90402        46.27126         1.37852
C         23.13275        48.32526         2.29676
C         21.83339        47.55014         2.09135
C         23.04662        49.79027         2.51686
C         21.86049        50.39274         2.85983
C         23.25027        52.43967         3.38213
C         21.88743        51.84258         3.22943
C         23.11261        54.34693         1.95617
C         21.85311        54.91614         2.53358
C         23.13994        57.04425         2.92752
C         21.86119        56.32128         2.60319
C         23.15417        58.48216         2.50874
C         21.92156        59.18103         2.39545
C         23.18570        61.24932         2.06442
C         21.96450        60.58448         2.16095
C         24.46436         6.62090         7.51259
C         25.82801         7.65791         5.65705
C         24.50686         7.41702         6.35490
C         25.87373         8.91224         4.80417
C         24.55573         9.66423         4.56750
C         25.70618        10.39002         2.55825
C         24.53868        10.37412         3.22564
C         25.73202        11.95270         1.08814
C         24.43191        12.59602         1.02288
C         25.66417        14.59794         0.26769
C         24.40414        13.90295         0.50013
C         25.69259        15.92886        -0.02911
C         24.43792        16.61094        -0.38551
C         25.66628        18.88629        -0.20277
C         24.44544        18.09461        -0.62045
C         25.66317        20.27599        -0.80059
C         24.38495        20.93179        -0.97621
C         25.58845        23.01621        -1.72677
C         24.38485        22.44974        -0.99428
C         25.66208        24.48919        -1.81277
C         24.43225        25.19958        -2.06303
C         25.58232        27.33030        -1.81583
C         24.39208        26.57238        -2.22890
C         25.64839        28.78260        -2.07292
C         24.45881        29.51769        -2.22545
C         25.64677        31.65633        -1.75004
C         24.45177        30.96209        -2.03053
C         25.65438        33.06241        -1.44960
C         24.46463        33.79848        -1.57487
C         25.66095        35.87280        -0.89488
C         24.47246        35.22087        -1.33128
C         25.67695        37.28883        -0.69776
C         24.50425        38.02621        -0.94169
C         25.73315        40.15539        -0.27501
C         24.56225        39.50581        -0.89127
C         25.66441        41.48097         0.12385
C         24.44320        42.25915         0.06480
C         25.61873        44.29881         0.88240
C         24.39661        43.60876         0.55603
C         25.61732        45.63027         1.26026
C         24.36515        46.34168         1.45662
C         25.64401        48.42658         2.09103
C         24.36729        47.67391         1.83734
C         25.51802        49.90284         1.76884
C         24.25542        50.59534         2.16811
C         25.60796        52.72302         2.57319
C         24.35717        51.98236         2.68426
C         25.61310        54.16830         2.59361
C         24.40757        54.92523         2.44302
C         25.64781        57.02890         2.66775
C         24.41314        56.30423         2.61651
C         25.62329        58.43439         2.59296
C         24.39628        59.16008         2.43474
C         24.39290        60.56115         2.20059
C         27.03453         9.27440         4.21193
C         28.20386        10.88398         2.46932
C         27.00906        10.48833         3.30937
C         28.19228        11.98432         1.59885
C         26.94390        12.59808         1.14371
C         28.25202        14.52210         0.06947
C         26.95588        13.87990         0.41821
C         28.22673        15.96519        -0.44159
C         26.98621        16.70323         0.11041
C         28.17410        18.84375        -0.33866
C         26.93190        18.10908        -0.41826
C         28.15169        20.32361        -0.65892
C         26.85778        20.92062        -1.04003
C         28.15054        22.99575        -1.70526
C         26.87874        22.25516        -1.66106
C         28.15359        24.38681        -1.85345
C         26.89757        25.12109        -1.79101
C         28.22510        27.24081        -1.37276
C         26.87974        26.56784        -1.54967
C         28.19289        28.73836        -1.61346
C         26.94423        29.44369        -1.99840
C         28.09587        31.52464        -1.03756
C         26.93439        30.96491        -1.82710
C         28.12120        33.02617        -1.04771
C         26.88960        33.73614        -1.11783
C         28.08138        35.76298        -0.37612
C         26.88679        35.12007        -0.78571
C         27.96085        37.09357         0.33746
C         26.87186        37.96985        -0.23368
C         28.12551        40.00939         0.44111
C         26.90496        39.33913        -0.02031
C         28.10836        41.34576         0.76894
C         26.79399        42.07007         0.93920
C         28.07102        44.19337         1.44930
C         26.92811        43.57189         0.64237
C         28.10437        45.68430         1.25301
C         26.87566        46.36381         1.38157
C         28.09750        48.47081         1.49316
C         26.88342        47.76408         1.54154
C         28.10046        49.95066         1.56460
C         26.80081        50.68863         1.72925
C         28.09010        52.70419         2.40754
C         26.82212        52.06131         2.27641
C         28.13604        54.12796         2.91900
C         26.84266        54.88569         2.71595
C         26.86005        56.27187         2.69635
C         29.41923        12.67553         1.28771
C         30.67185        14.70037         0.61671
C         29.48800        13.94314         0.66892
C         30.70701        16.07828         0.20215
C         29.48706        16.74611        -0.13683
C         30.66652        18.88985        -0.37893
C         29.46822        18.13255        -0.31944
C         30.65801        20.26432        -0.82972
C         29.41454        20.95675        -1.09712
C         30.62433        22.95392        -1.96598
C         29.38105        22.27150        -1.56210
C         30.62012        24.42991        -2.09621
C         29.40998        25.09807        -2.00318
C         30.60597        27.33503        -2.22064
C         29.27766        26.58384        -2.27927
C         30.66135        28.62298        -1.40089
C         29.37690        29.41802        -1.52980
C         30.58805        31.53665        -1.15908
C         29.41961        30.86889        -1.36659
C         30.60404        32.93924        -0.60135
C         29.31199        33.69095        -0.79680
C         30.57978        35.73157        -0.26852
C         29.31305        35.07678        -0.45500
C         30.63169        37.06284         0.32920
C         29.29277        37.80525         0.56455
C         30.60149        39.92390         0.69685
C         29.35588        39.25519         0.56738
C         30.62096        41.32085         0.91503
C         29.34846        41.98683         1.36154
C         30.56129        44.16753         1.04435
C         29.37692        43.48694         1.19642
C         30.55787        45.64624         0.91140
C         29.31381        46.38493         1.20037
C         30.59352        48.50754         1.50874
C         29.32833        47.79639         1.32382
C         30.54785        49.90592         1.87592
C         29.36552        50.62647         1.92431
C         29.29119        52.01673         2.25515
C         31.89380        16.84039         0.23557
C         33.10515        18.98228        -0.11262
C         31.91090        18.22316        -0.10586
C         33.11046        20.35534        -0.49093
C         31.87994        20.93411        -0.99864
C         33.25361        22.96507        -1.78919
C         31.93275        22.21715        -1.71316
C         33.10288        24.46851        -1.95965
C         31.91445        25.11362        -2.21497
C         33.13643        27.37359        -2.09839
C         31.90670        26.59720        -2.34151
C         33.09213        28.77735        -1.93135
C         31.89089        29.43385        -1.68846
C         33.10446        31.63178        -1.51233
C         31.90810        30.81258        -1.09615
C         33.03092        33.13830        -1.61001
C         31.78720        33.76399        -1.05370
C         32.97108        36.00046        -1.07826
C         31.75934        35.12267        -0.80134
C         33.12768        37.05450         0.04558
C         31.86508        37.84983         0.23975
C         33.09769        39.95354         0.59383
C         31.86153        39.21045         0.51769
C         33.08537        41.33197         0.74942
C         31.83326        42.05074         0.87812
C         33.06469        44.20810         1.06155
C         31.82417        43.46927         0.97177
C         33.07958        45.59442         1.24221
C         31.87684        46.40913         1.05366
C         31.79158        47.81451         1.47541
C         34.24941        21.15987        -0.37471
C         35.48056        23.34452        -0.70960
C         34.14973        22.64656        -0.58305
C         35.59529        24.56849        -1.32600
C         34.41169        25.17792        -1.99638
C         35.63768        27.45233        -1.74149
C         34.42544        26.69301        -2.12006
C         35.61419        28.83565        -1.74895
C         34.36168        29.56838        -2.16097
C         35.56003        31.73957        -1.61856
C         34.30142        31.00173        -1.67959
C         35.55805        33.10879        -1.36988
C         34.28409        33.79623        -0.92801
C         35.49563        36.05170        -1.48490
C         34.25961        35.25127        -1.19713
C         35.50774        37.34514        -0.66093
C         34.37347        37.88725        -0.14149
C         35.60673        40.04039         0.30810
C         34.40466        39.18762         0.64124
C         35.55711        41.41890         0.55217
C         34.32909        42.09297         0.80393
C         34.29372        43.47240         1.00431
C         36.81109        25.33435        -1.26543
C         38.05388        27.48324        -1.30696
C         36.85270        26.72537        -1.45692
C         38.05789        28.87873        -1.39089
C         36.81921        29.59066        -1.58123
C         38.02898        31.74089        -1.50683
C         36.80135        31.00777        -1.60940
C         38.01982        33.13982        -1.51375
C         36.78297        33.85818        -1.40891
C         38.01824        35.98512        -1.17764
C         36.77541        35.26355        -1.33024
C         37.97424        37.39104        -0.85734
C         36.78785        38.05418        -0.56679
C         36.77648        39.41418        -0.14293
C         39.27402        29.64029        -1.27025
C         40.49514        31.79509        -1.16393
C         39.27644        31.01617        -1.34950
C         40.51364        33.13602        -1.29796
C         39.29911        33.90062        -1.75493
C         39.22954        35.31620        -1.26115
O         23.04006        53.64470         0.95491
O         34.66779        25.81063        -3.28728
O         28.15979        19.91338         0.76507
O         16.32056        37.92375        -2.84445
O         27.22012        30.38531        -3.11506
O         16.83947        16.09134        -1.41123
O         26.00104        26.96223        -0.43837
O         24.09051        40.14883        -2.14438
O         27.62379        13.63440        -0.92039
O         31.24126        46.14334        -0.26959
O         31.30913        22.21079        -3.04274
O         21.70716        26.12043        -4.18025
O         18.40594        52.18464         3.83421
O         19.43204        46.47728        -0.95283
O         21.92963        38.64298         0.26304
O         12.97420        35.63264         0.51927
O         30.00985        37.16728         1.67542
O         25.72596        10.56286         1.17647
O         31.23337        27.27283        -3.52197
O         20.06393        48.58397         3.42824
O         11.06533        26.98115        -2.96117
O         22.49928        47.55118         3.38359
O         14.44032        26.01649        -0.24400
O         24.56957        17.20108        -1.75631
O         18.88442        21.05382         0.72571
O         20.16585        18.67974         1.18858
O         19.93322        11.76976         0.36887
O         17.45685        29.15955        -3.75308
O         26.05118        22.31567        -2.90866
O         24.58456        50.31372         0.73976
O         27.44211        50.59019         0.40728
O         18.25727        36.59183        -0.19363
O         21.07188        52.29788         4.36219
O         17.49957        26.66191        -3.43803
O         13.10715        23.64679        -2.92370
O         23.13787        57.08560         4.42173
H         22.40256        57.67971         4.68676
O         29.24307        41.73912         2.81658
H         28.37460        42.13092         3.09011
O         20.00003        45.27700         2.40668
H         20.70019        44.88224         2.96826
O         23.33469        53.40263         4.32091
H         22.44416        53.44117         4.76130
O         17.00870        47.31140        -1.55586
H         17.92448        47.28205        -1.91563
O         39.43146        34.01619        -3.22798
H         38.65452        34.52429        -3.54703
O          7.65667        31.70127        -2.38122
H          6.89957        32.34001        -2.38355
O         20.19290        48.80413        -0.15235
H         19.92127        48.36591        -0.99250
O         34.56185        38.76655         2.05326
H         35.51664        38.59206         2.19853
O         27.75589        44.02186         2.86743
H         28.47090        44.44720         3.38577
O         23.10545        12.13054         3.82972
H         23.25372        11.70262         4.71167
O         14.43228        21.78269         0.82223
H         14.45161        21.09376         1.51887
O         28.74717        26.70456        -3.61731
H         29.51752        26.71151        -4.23301
O         33.34086        36.28262         1.27064
H         33.57560        36.94235         1.96862
O         19.65841        39.86350        -3.11959
H         19.71982        40.82912        -3.28241
O          6.36581        34.00790        -1.76929
H          6.87948        34.64363        -2.31288
O         20.50392         9.50935         1.41963
H         20.06023         9.92018         0.63815
O         16.87801        42.77719        -2.57531
H         16.85361        41.90182        -3.02089
O         30.72485        32.77179         0.87864
H         30.90363        33.66521         1.24869
O         14.35219        44.09483        -2.12033
H         15.18519        43.77455        -2.54841
O         28.13450        15.94388        -1.87832
H         27.75946        15.06334        -2.12481
O         24.34024        10.56621         5.67488
H         25.10719        11.18371         5.67400
O         27.28288        43.72174        -0.74810
H         26.54910        43.37341        -1.29726
O         26.05328         6.53196         4.78259
H         25.36755         6.59279         4.07618
O         19.34503        16.40313        -1.57054
H         18.39566        16.16244        -1.80149
O         12.91389        37.39016        -2.66440
H         13.04986        38.28462        -3.04268
O         14.68087        21.57352        -2.79573
H         14.35652        22.19364        -3.48835
O         33.10083        33.47301        -3.02678
H         33.78317        32.90250        -3.44192
O         26.40213        41.91968         2.33733
H         26.26123        40.96374         2.50475
O         18.29049        31.76969        -0.56948
H         19.07212        32.30958        -0.27868
O         21.90120        21.77780        -3.22220
H         22.07132        22.59006        -3.76282
O         20.48686        33.20230        -0.29223
H         21.26992        32.82141         0.15951
O         25.83275        48.41745         3.55366
H         25.70654        47.49736         3.87035
O         24.57997        22.86768         0.40305
H         23.84625        22.49245         0.93413
O         14.21957        16.12405        -1.25061
H         15.13703        16.03915        -1.64865
O         18.16695        16.97323         1.90024
H         19.06358        17.31248         2.12286
O         23.04014        24.15798        -3.74782
H         23.87295        23.76611        -4.08814
O         33.45187        23.21275         0.57903
H         33.96795        22.98764         1.38148
O         28.60560        26.98189        -0.00921
H         27.82292        27.17832         0.55153
O         29.24420        54.83759         2.36014
H         29.14968        54.83278         1.38559
O         22.23648        25.90083        -0.70944
H         21.39762        26.02392        -0.18193
O         32.13116        30.56209         0.35417
H         31.85051        31.38692         0.83274
O         35.45563        36.49745        -2.88609
H         34.57680        36.93216        -3.00512
O         15.94634        31.27872         0.02474
H         16.79797        31.67379         0.33198
O         13.17947        31.20460         0.27708
H         14.09698        31.27813         0.63520
O         33.95291        22.48521        -2.95609
H         33.29795        22.45195        -3.68887
O         25.55778        19.06620         1.26385
H         26.34559        19.61550         1.50960
O         23.86313        27.49172        -4.32373
H         23.36014        26.83841        -4.86917
O         23.78428         7.71472         3.43072
H         22.98281         7.22719         3.14406
O         34.46024        29.72119        -3.62183
H         34.48797        28.82141        -4.01395
O         32.73676        36.73905        -2.31369
H         32.52246        36.07260        -3.00336
O         20.09029        34.01040        -3.80567
H         19.31127        34.03955        -4.41344
O         30.83917        28.19116        -0.01861
H         31.19536        28.97040         0.48006
O         19.66373        25.71130        -0.02613
H         19.36152        24.96153         0.53384
O         19.92834        11.64608         4.34239
H         19.19227        11.73348         4.98421
O         27.45819        36.74810         1.67235
H         28.25380        36.54309         2.21770
O         17.81714        33.32476        -3.90378
H         16.91728        32.93102        -4.03748
O         12.09527        31.43092        -3.20996
H         11.31941        31.05905        -3.68003
O         26.79113        11.64819         4.22202
H         27.66880        11.90972         4.57486
O         34.14586        33.58373         0.51565
H         33.92475        34.45341         0.93315
O         22.22005        35.58079        -3.51406
H         21.50100        35.07103        -3.97059
O         27.20761        16.82482         1.55522
H         26.55935        17.49672         1.88185
O         27.81538        31.15033         0.35170
H         28.53654        31.52206         0.90607
O         16.31359        31.39660        -3.63218
H         16.68522        30.76158        -4.29087
O         17.19349        14.81315         3.17869
H         17.44397        15.76843         3.08354
H          5.49046        31.21319         1.16013
H          5.32208        33.64960         0.96342
H          7.52159        26.96312        -0.17290
H          6.52159        29.07932         0.48601
H          6.29564        35.87692         0.30343
H          7.57720        37.92702         0.52573
H          9.85154        22.64265        -0.67191
H          8.66712        24.77785        -0.59693
H          8.83377        40.05031         0.57296
H         10.06724        42.17162         0.55898
H         12.30865        18.32969        -0.22064
H         11.02871        20.41561        -0.67412
H         11.27773        44.27692         0.60309
H         12.44323        46.41697         0.61855
H         14.81030        14.53672         1.69343
H         13.54168        16.42121         0.69241
H         13.63389        48.55368         0.70838
H         14.83213        50.63092         1.19721
H         17.34411        10.49621         3.24751
H         16.07141        12.38907         2.39865
H         16.04708        52.70139         1.62157
H         17.27723        54.83515         2.28389
H         19.89508         7.42286         6.05339
H         18.67154         8.94776         4.68582
H         18.47517        56.86235         2.46817
H         19.74194        59.04669         2.44565
H         23.21879         5.60096         8.96426
H         21.08170         6.25136         7.85519
H         23.19874        62.33355         1.88421
H         21.02273        61.14217         2.05758
H         25.40418         6.29285         7.97956
H         26.66237         7.66387         6.40484
H         26.57270        58.99057         2.58003
H         25.34800        61.10106         2.13225
H         27.96052         8.70408         4.38835
H         29.18792        10.50357         2.79170
H         28.32299        54.08030         4.03079
H         27.82623        56.79616         2.74050
H         30.35437        12.25474         1.69230
H         31.60271        14.25472         1.00141
H         31.49847        50.41141         2.10517
H         30.22805        52.56345         2.44226
H         32.84045        16.35036         0.50809
H         34.05085        18.50813         0.18839
H         34.03401        46.09935         1.45537
H         32.72146        48.32703         1.76571
H         35.18343        20.72730         0.01590
H         36.35069        22.92055        -0.18311
H         36.47433        42.01648         0.43551
H         35.24064        44.03103         1.05064
H         37.72545        24.82145        -0.92997
H         39.00039        26.95022        -1.13116
H         38.92829        37.92877        -0.75007
H         37.70213        40.00338        -0.23125
H         40.21938        29.10042        -1.10842
H         41.41175        31.25220        -0.88610
H         41.44989        33.69641        -1.15436
H         40.16840        35.87919        -1.14533
