         404
 CSIRO Nanostructure Databank - Neutral Graphene Oxide Data Set
C          1.11336         3.81576         1.58133
C         -0.08213         4.55235         1.59572
C          1.09898         6.52024         0.77710
C         -0.09453         5.87541         1.18277
C          1.11270         7.89554         0.31521
C         -0.11967         8.63990         0.13873
C          1.06801        10.71299        -0.42491
C         -0.14105         9.95761        -0.21614
C          1.06905        12.07550        -0.67283
C         -0.11803        12.90015        -0.81444
C          1.18058        14.83826        -1.68565
C         -0.07673        14.18944        -1.24347
C          1.25917        16.28830        -2.01260
C          0.12249        16.90845        -2.54995
C          1.46450        18.83874        -3.05374
C          0.24151        18.16423        -3.13419
C          1.44225        21.08793        -2.90663
C          0.22322        21.77714        -2.91377
C          1.25894        23.56296        -1.65294
C          0.10599        22.96977        -2.21328
C          1.22132        24.93637        -1.13721
C         -0.02156        25.67728        -1.04277
C          1.05140        27.67982        -0.06405
C         -0.11469        26.96429        -0.60345
C          1.05759        29.16458         0.17626
C         -0.13581        29.85377         0.43981
C          1.07863        31.94183         0.80246
C         -0.12319        31.21517         0.74352
C          1.05980        33.43251         0.92389
C         -0.08062        34.15610         1.49618
C          1.22076        36.23541         1.71938
C         -0.01273        35.48911         1.77527
C          1.26454        37.62907         2.05491
C          3.54733         3.55678         1.09901
C          2.30635         4.41415         1.18638
C          3.56340         6.43850         0.48746
C          2.32027         5.78478         0.80981
C          3.56961         7.81707         0.14797
C          2.32406         8.52342         0.03351
C          3.62665        10.63072        -0.30757
C          2.34246         9.89923        -0.59341
C          3.63952        12.09716        -0.37020
C          2.35537        12.82445        -0.61072
C          3.70169        14.92155        -1.19167
C          2.45289        14.13804        -1.31336
C          3.69361        16.27228        -1.52246
C          2.50333        16.98295        -1.94015
C          3.73938        19.23997        -2.02305
C          2.58556        18.36503        -2.34245
C          3.72969        20.62926        -1.90320
C          2.55508        21.49248        -2.13601
C          3.74463        23.57069        -1.46645
C          2.47776        22.83679        -1.65919
C          3.70179        24.97289        -1.01117
C          2.40969        25.59098        -0.83040
C          3.61131        27.74350        -0.32470
C          2.35847        26.94890        -0.25343
C          3.57374        29.21013        -0.01539
C          2.27247        29.88329         0.26785
C          3.64620        31.97978         0.49400
C          2.29576        31.26149         0.57869
C          3.64850        33.41416         0.99120
C          2.39704        34.17884         0.96049
C          3.67798        36.23132         1.57633
C          2.42399        35.56349         1.45617
C          3.70142        37.64569         1.84454
C          2.45231        38.31289         2.08617
C          6.02485         3.73208         1.27455
C          4.83439         4.32817         0.95020
C          6.00241         6.37149         0.22653
C          4.79630         5.71793         0.51720
C          6.03575         7.77748         0.01297
C          4.81601         8.49312        -0.04666
C          6.08430        10.64304        -0.24400
C          4.81774         9.93698        -0.21684
C          6.11614        12.06188        -0.51440
C          4.91143        12.78880        -0.65004
C          6.17411        14.84578        -1.00533
C          4.91962        14.17877        -0.91578
C          6.15757        16.32912        -0.99416
C          4.97476        17.01064        -1.59800
C          6.26207        19.22547        -1.35106
C          5.02225        18.50681        -1.78283
C          6.24076        20.62361        -1.18672
C          4.88212        21.29285        -1.12188
C          6.23980        23.46391        -0.85194
C          5.02019        22.78445        -1.35541
C          6.20352        24.93709        -0.80822
C          4.88821        25.62167        -0.69475
C          5.95851        27.57490         0.39193
C          4.87042        26.97283        -0.20628
C          5.71544        28.82471         1.06952
C          4.73859        29.72710         0.73908
C          6.07657        31.86400         1.46443
C          4.76009        31.14994         1.14977
C          6.10312        33.31940         1.07320
C          4.83221        34.07827         1.21236
C          6.13376        36.22412         1.39793
C          4.89054        35.51642         1.40117
C          6.14736        37.65528         1.59599
C          4.92213        38.32969         1.84740
C          8.43749         3.78046         1.57588
C          7.30401         4.37867         1.07245
C          8.48171         6.32360        -0.26208
C          7.22576         5.50596         0.03332
C          8.53138         7.77822         0.06105
C          7.30231         8.49688        -0.00484
C          8.54603        10.67096        -0.00907
C          7.27740         9.92214        -0.07235
C          8.58833        12.05905        -0.50956
C          7.36566        12.74580        -0.69910
C          8.67289        14.85851        -1.25889
C          7.37400        14.15262        -0.94339
C          8.69887        16.32595        -0.91404
C          7.43723        17.06917        -0.90832
C          8.67847        19.20497        -0.85311
C          7.46279        18.52602        -1.12580
C          8.66637        20.62413        -0.72878
C          7.42810        21.32419        -0.85166
C          8.65258        23.45880        -0.26228
C          7.41900        22.77094        -0.64808
C          8.65624        24.84920        -0.02407
C          7.45561        25.65454        -0.34879
C          8.62135        27.75387         0.61204
C          7.34985        27.07540         0.16659
C          8.73795        29.09987         1.27621
C          7.58365        29.83617         1.70247
C          8.64922        31.98603         1.51845
C          7.41040        31.19879         1.53512
C          8.67034        33.41209         1.21646
C          7.38411        34.09387         1.01057
C          8.59562        36.25085         1.17238
C          7.36866        35.55677         1.19249
C          8.59927        37.68894         1.30132
C          7.37249        38.35383         1.53175
C         10.94353         3.67643         1.68999
C          9.76156         4.36862         1.59694
C         11.05839         6.47504         1.09440
C          9.83828         5.85006         1.66967
C         11.02588         7.78681         0.53341
C          9.78734         8.42269         0.21315
C         11.06601        10.52452        -0.45385
C          9.82242         9.89862         0.14113
C         11.06033        12.01488        -0.19285
C          9.82462        12.76073        -0.52682
C         11.13062        14.86224        -0.70504
C          9.89320        14.13552        -0.76242
C         11.14250        16.28452        -0.75525
C          9.89287        17.01587        -0.80222
C         11.11684        19.14479        -0.47149
C          9.90459        18.46482        -0.69124
C         11.10554        20.57735        -0.29528
C          9.88729        21.30855        -0.39685
C         11.09240        23.39242         0.20176
C          9.87621        22.71836        -0.13709
C         11.06786        24.79266         0.43592
C          9.86053        25.52977         0.34504
C         11.09370        27.66684         0.58176
C          9.88360        26.95993         0.56275
C         11.11347        29.11246         0.65713
C          9.92238        29.79161         1.08041
C         11.14783        31.98708         0.90597
C          9.99066        31.22565         1.38221
C         11.11674        33.39996         0.87953
C          9.86093        34.10566         1.06349
C         11.04365        36.26066         0.82836
C          9.83895        35.55207         0.99175
C         11.03965        37.70441         0.92322
C          9.82769        38.38245         1.18863
C         13.41077         3.67019         1.80751
C         12.22380         4.36331         1.64115
C         13.51954         6.42786         1.07209
C         12.25451         5.76468         1.25722
C         13.52796         7.82031         0.66498
C         12.29245         8.49259         0.37907
C         13.57482        10.54135        -0.17520
C         12.33744         9.84013        -0.02048
C         13.58181        11.91847        -0.49579
C         12.37298        12.72396        -0.34350
C         13.58525        14.85988        -0.68737
C         12.37278        14.16811        -0.61778
C         13.60537        16.27855        -0.60233
C         12.36698        16.99036        -0.61272
C         13.59267        19.05514        -0.16225
C         12.36396        18.40880        -0.43320
C         13.54690        20.47820         0.23397
C         12.31538        21.25511         0.03810
C         13.60379        23.33799         0.34106
C         12.34036        22.65313         0.24916
C         13.64133        24.78286         0.61182
C         12.31799        25.52037         0.72907
C         13.56106        27.66272         0.43154
C         12.35035        26.97769         0.54659
C         13.54050        29.10778         0.30494
C         12.29843        29.82538         0.47108
C         13.45562        32.00728         0.13863
C         12.30394        31.27755         0.50735
C         13.46784        33.42150         0.14757
C         12.28439        34.12396         0.51139
C         13.45977        36.28368         0.30396
C         12.27169        35.56652         0.54337
C         13.46733        37.72066         0.47304
C         12.26225        38.39700         0.78107
C         15.88147         3.58440         1.71979
C         14.69353         4.30339         1.62794
C         15.97571         6.44885         1.37824
C         14.70156         5.71876         1.31919
C         16.00783         7.86650         0.88628
C         14.75360         8.50854         0.45459
C         16.08872        10.54573        -0.17473
C         14.81543         9.84371         0.00782
C         16.09106        11.88566        -0.56037
C         14.83524        12.58866        -0.80934
C         16.12513        14.83048        -0.64197
C         14.85088        14.12715        -0.88258
C         16.09935        16.23483        -0.46264
C         14.84895        16.96752        -0.44087
C         16.11935        19.03877         0.22557
C         14.82527        18.36005        -0.19468
C         16.12160        20.52869        -0.01606
C         14.88146        21.23857         0.29233
C         16.06600        23.40708        -0.02900
C         14.83267        22.69399         0.16863
C         16.06884        24.85083         0.01206
C         14.85668        25.54431         0.28640
C         16.03889        27.67598         0.10173
C         14.82222        26.95651         0.28250
C         16.00859        29.14216         0.18092
C         14.70776        29.81369         0.08773
C         15.90191        32.00796        -0.56975
C         14.64659        31.24216        -0.26185
C         15.85074        33.47720        -0.49789
C         14.67595        34.15712        -0.20667
C         15.83406        36.35034        -0.35226
C         14.66846        35.61200        -0.10948
C         15.89119        37.76157        -0.01054
C         14.68606        38.41605         0.36984
C         18.45803         3.47741         1.50513
C         17.15872         4.17784         1.18286
C         18.55518         6.32884         1.22863
C         17.25100         5.66105         1.48551
C         18.56421         7.67777         0.58316
C         17.29128         8.41733         0.35369
C         18.58588        10.48350        -0.08453
C         17.34345         9.86104         0.03565
C         18.65695        11.87830        -0.57365
C         17.33375        12.62965        -0.82756
C         18.58325        14.79917        -0.63706
C         17.33906        14.10736        -0.69897
C         18.57839        16.23366        -0.61286
C         17.34462        16.95121        -0.45444
C         18.54443        19.09480        -0.50817
C         17.35077        18.35447        -0.30775
C         18.52921        20.53328        -0.50254
C         17.27805        21.24253        -0.27942
C         18.49026        23.42178        -0.46455
C         17.26638        22.69905        -0.26977
C         18.50518        24.85271        -0.39256
C         17.28174        25.57167        -0.15354
C         18.48381        27.75809        -0.31802
C         17.27275        27.00987        -0.08825
C         18.48490        29.14923        -0.47226
C         17.27807        29.92313        -0.14353
C         18.38526        32.02978        -0.82167
C         17.21147        31.33692        -0.53124
C         18.36826        33.47022        -0.95837
C         17.06017        34.17934        -0.94436
C         18.33775        36.42069        -0.97636
C         17.02405        35.69531        -0.92984
C         18.35719        37.87527        -0.49988
C         17.09883        38.46374        -0.02273
C         19.65750         4.09664         1.34720
C         20.95246         6.18632         0.79607
C         19.77572         5.51216         1.04609
C         20.99970         7.61022         0.61745
C         19.86032         8.39230         0.51327
C         21.00024        10.59851         0.32052
C         19.83151         9.81971         0.24797
C         21.00729        11.98484         0.10972
C         19.86800        12.67377        -0.32542
C         21.03400        14.85212        -0.59738
C         19.83293        14.09442        -0.54654
C         21.02085        16.22555        -0.70985
C         19.79948        16.95661        -0.68865
C         20.94644        19.15543        -0.96848
C         19.77249        18.39630        -0.73254
C         20.91834        20.53332        -0.96988
C         19.71662        21.25331        -0.72550
C         20.89907        23.44207        -0.82811
C         19.71116        22.71293        -0.68935
C         20.90977        24.83563        -0.73123
C         19.73381        25.55476        -0.52674
C         20.84940        27.76151        -1.11427
C         19.81542        27.04594        -0.27642
C         20.79725        29.09795        -1.31002
C         19.64757        29.88013        -0.89606
C         20.81277        32.06625        -1.19233
C         19.63004        31.29599        -0.96101
C         20.78763        33.43774        -1.19055
C         19.56603        34.18249        -1.04859
C         20.77032        36.33404        -0.69609
C         19.59747        35.64671        -0.93276
C         20.78907        37.69859        -0.25787
C         19.64573        38.41308        -0.05877
O          9.50012        31.64663         2.68428
O          5.28430        17.57903        -2.91057
O         14.20936        20.74263         1.52080
O          6.71910        33.57781        -0.23316
O          6.99723         4.77371        -1.21317
O          9.26161        10.55918         1.30639
O          4.62478        23.31027        -2.64764
O          1.57211        20.01986        -3.79824
O         14.83899        13.32531        -2.10324
O         16.84368        29.71320         1.26551
O          5.10091        31.53507         2.50915
O         18.05045         6.12308         2.60444
O          1.70922        26.98158         1.06594
O         18.33422        37.51373        -1.93903
O          8.07522        27.97392        -0.76130
O         15.97776         7.58256         2.32162
O          1.62617        34.03567        -0.29472
O          1.93625        14.03798        -2.68162
O         18.12187        12.08052        -1.92674
O         13.04885        25.09260         1.92956
O         15.05118        31.47185        -1.67570
O          7.11744        25.57022        -1.77418
O          6.52659        29.06599         2.17883
O          8.98688         6.49416         2.28631
O          2.90338        12.79970         0.74438
O          6.56215        16.81517         0.33264
O          3.70063        28.75061        -1.40262
O         11.73194        12.43584         1.00619
O         16.78533        34.95895        -2.17247
O         17.86926         7.59773        -0.72957
O         17.01966         4.13257        -0.28424
H         16.95871         3.19168        -0.55231
O          4.47469        21.20456         0.28745
H          4.54740        20.26886         0.57245
O          3.61429         2.64871         2.20686
H          3.69371         3.17511         3.02854
O          3.98235        32.03947        -0.91558
H          3.32701        32.62565        -1.35270
O          9.35889         5.80731        -0.95812
H          7.89296         4.60262        -1.59033
O          2.39253         9.64195        -2.05434
H          1.59589         9.11631        -2.28261
O         20.28351        27.15872         1.11809
H         20.19694        28.10007         1.38060
O         10.96701        10.37796        -1.90285
H         11.11182         9.43544        -2.13139
O         16.18850        18.87057         1.68706
H         15.46060        19.42864         2.05981
O          8.75636        14.81473        -2.74141
H          9.64185        15.15052        -2.99860
H          1.11667         2.75958         1.88487
H         -1.01549         4.07066         1.91858
H         -1.04615         6.42292         1.18804
H         -1.07721         8.13349         0.31861
H         -1.10990        10.47379        -0.27447
H         -1.09620        12.46227        -0.56675
H         -1.01141        14.76731        -1.29005
H         -0.82767        16.36181        -2.61434
H         -0.59261        18.61602        -3.68541
H         -0.61810        21.38008        -3.49592
H         -0.85677        23.49557        -2.21342
H         -0.94336        25.19737        -1.39915
H         -1.07952        27.48761        -0.67546
H         -1.09766        29.32395         0.39881
H         -1.07984        31.72903         0.91070
H         -1.00338        33.60267         1.72265
H         -0.90656        36.00643         2.15506
H          0.31970        38.15221         2.26242
H          3.43802         2.91158         0.17980
H          2.46512        39.38997         2.30778
H          6.00695         2.73742         1.74791
H          4.93654        39.41368         2.03527
H          8.31871         2.78942         2.04801
H          7.36987        39.44806         1.64783
H         10.94625         2.57654         1.75058
H          9.83733        39.47838         1.28633
H         13.38429         2.59582         2.04516
H         12.27849        39.49118         0.89599
H         15.84653         2.51275         1.97226
H         14.70895        39.49813         0.56639
H         18.42656         2.40425         1.75047
H         17.11295        39.50571         0.33109
H         20.58672         3.51997         1.47859
H         21.89945         5.62888         0.74305
H         21.99253         8.07170         0.51462
H         21.94396        10.11756         0.61319
H         21.94464        12.53028         0.28596
H         22.00137        14.33225        -0.57608
H         21.97924        16.75788        -0.76932
H         21.89990        18.64838        -1.16662
H         21.85430        21.07125        -1.16678
H         21.85675        22.92931        -0.98249
H         21.87466        25.35632        -0.79141
H         21.72764        27.20480        -1.47125
H         21.61385        29.59825        -1.85041
H         21.77558        31.55305        -1.32139
H         21.73262        33.97868        -1.33241
H         21.73263        35.80430        -0.70611
H         21.75855        38.13075         0.02819
H         19.67250        39.39459         0.43634
