         429
 CSIRO Nanostructure Databank - Neutral Graphene Oxide Data Set
C          1.86165         3.10019         2.65922
C          0.94534         3.53323         3.60923
C          1.63201         5.82250         3.13659
C          0.84485         4.89802         3.85720
C          1.32099         8.14523         2.54450
C          0.13389         8.81511         2.40509
C          1.26830        10.81092         1.61963
C          0.10574        10.11096         1.79838
C          1.26917        12.24137         1.35472
C          0.09700        12.98934         1.63337
C          1.20760        15.04808         0.98956
C          0.07774        14.35806         1.48853
C          1.14750        16.45982         0.71029
C         -0.01298        17.24361         0.96781
C          0.96051        19.18782        -0.09484
C         -0.08527        18.59158         0.64993
C          1.06759        20.62601        -0.38153
C         -0.04986        21.38838        -0.64010
C          1.20254        23.49634        -0.86340
C          0.02602        22.77741        -0.94799
C          1.32034        24.87039        -1.35354
C          0.26384        25.46091        -2.07684
C          1.37163        27.61527        -2.00260
C          0.28725        26.81282        -2.38896
C          1.27645        29.09070        -2.16453
C          0.01403        29.79360        -1.91548
C          1.13117        31.97215        -1.70984
C         -0.01943        31.18130        -1.83042
C          0.99109        33.48189        -1.56052
C          0.00711        33.86090        -0.48546
C          1.18760        35.96527        -0.02703
C          0.05815        35.07624         0.10628
C          1.17567        37.21081         0.65594
C          3.74895         3.46055         1.19229
C          2.70943         4.02098         2.00017
C          3.49232         6.32739         1.30590
C          2.62770         5.43237         2.22304
C          3.61375         7.84515         1.55772
C          2.55474         8.63740         1.94938
C          3.71620        10.73796         1.08875
C          2.60392        10.16418         1.92578
C          3.67124        12.15121         0.70331
C          2.43124        12.90753         0.91013
C          3.55006        15.01501         0.17677
C          2.39120        14.31830         0.66303
C          3.55914        16.40281        -0.02515
C          2.27006        17.07417         0.08635
C          3.87486        19.40367        -0.61932
C          2.01707        18.34793        -0.45833
C          3.68670        20.66495        -0.13086
C          2.35846        21.32687        -0.12191
C          3.69167        23.55353        -0.29369
C          2.37259        22.86073        -0.24143
C          3.63603        25.07682        -0.28339
C          2.46834        25.65177        -1.06692
C          3.68973        27.87474        -0.95014
C          2.49290        27.02542        -1.37501
C          3.85850        29.10176        -1.88936
C          2.54428        29.87528        -2.04860
C          3.71422        32.05392        -1.47112
C          2.43352        31.29050        -1.57351
C          3.66080        33.53439        -1.60922
C          2.33568        34.23685        -1.43533
C          3.58081        36.20644        -0.42694
C          2.37632        35.53319        -0.69166
C          3.59644        37.35511         0.45583
C          2.33757        37.91870         0.85443
C          6.04533         3.53495         0.42833
C          4.86047         4.21382         0.84353
C          6.00142         6.37117         0.80019
C          4.84618         5.65690         1.03699
C          6.00293         7.81014         0.87265
C          4.83884         8.52258         1.13937
C          6.08387        10.60993         0.48788
C          4.85547         9.96951         0.92577
C          6.03816        11.98814        -0.12981
C          4.77458        12.77163         0.16888
C          6.00789        14.95034         0.19753
C          4.76205        14.22984        -0.27619
C          6.06881        16.38281         0.17046
C          4.85358        17.12919        -0.11993
C          6.18710        19.25175         0.01969
C          4.97017        18.53405        -0.24901
C          6.18679        20.68694         0.09844
C          4.88075        21.41934         0.40213
C          6.13903        23.59897        -0.05471
C          4.84796        22.86796        -0.09061
C          6.15644        24.92737        -0.74011
C          4.93357        25.72824        -0.71601
C          6.24694        27.77652        -1.08346
C          4.98636        27.07810        -0.97167
C          6.23556        29.27426        -0.90546
C          5.02884        29.97122        -1.47703
C          6.24619        32.11126        -1.34597
C          5.02175        31.33607        -1.53041
C          6.20289        33.49524        -1.23625
C          4.94869        34.26857        -1.38308
C          6.15552        36.41086        -0.46833
C          4.88727        35.69789        -0.90801
C          6.04573        37.04219         0.91474
C          4.77864        37.83565         1.01946
C          8.44663         3.52466        -0.02335
C          7.23843         4.21156         0.21186
C          8.54147         6.34877         0.35107
C          7.19045         5.71577         0.11522
C          8.59925         7.77574         0.75313
C          7.30585         8.52836         0.87610
C          8.54758        10.67597         0.25760
C          7.29884         9.98039         0.59496
C          8.52817        12.14520         0.22243
C          7.27590        12.76611         0.26061
C          8.83994        15.14342         0.51628
C          7.06161        14.13416         0.62150
C          8.60588        16.42145         0.06439
C          7.33276        17.08791         0.20103
C          8.64361        19.23481         0.35880
C          7.37434        18.51285         0.15882
C          8.64101        20.69622         0.26872
C          7.41677        21.38118         0.14432
C          8.71635        23.57100        -0.20532
C          7.43417        22.87206         0.11200
C          8.73057        24.95758        -0.51890
C          7.48651        25.63671        -0.92824
C          8.72387        27.81446        -0.96251
C          7.46422        27.10707        -0.99457
C          8.71879        29.24113        -1.19975
C          7.53482        29.96134        -1.23957
C          8.72043        32.12448        -1.40340
C          7.52995        31.40500        -1.34029
C          8.68633        33.59342        -1.34264
C          7.40987        34.25211        -1.00869
C          8.62548        36.21877        -0.16034
C          7.40349        35.55800        -0.55573
C          8.51714        37.43480         0.66710
C          7.29486        37.83274         1.18430
C         10.88472         3.49649        -0.32422
C          9.67148         4.20680        -0.19104
C         10.90630         6.38690        -0.34144
C          9.65936         5.66353        -0.03925
C         11.01148         7.83532        -0.09791
C          9.90857         8.56933         0.62328
C         10.91644        10.66920        -0.50039
C          9.72225         9.98260         0.11084
C         10.99734        12.13713        -0.17816
C          9.81299        12.85086         0.12776
C         11.06181        14.91726        -0.41007
C          9.90886        14.27903         0.08882
C         11.00083        16.33422        -0.82071
C          9.69849        17.13791        -0.69492
C         11.16261        19.21611        -0.35903
C          9.94731        18.47910        -0.01693
C         11.20793        20.64358        -0.04057
C          9.90611        21.43265         0.28238
C         11.16345        23.56674        -0.22828
C          9.92125        22.87673        -0.05223
C         11.17035        24.98458        -0.39226
C          9.93896        25.68794        -0.55611
C         11.21132        27.80720        -0.84776
C          9.94228        27.11416        -0.81002
C         11.25250        29.24324        -1.02880
C         10.00864        29.91938        -1.42799
C         11.27752        32.15158        -1.13427
C         10.02804        31.45226        -1.54034
C         11.29699        33.64477        -1.16832
C          9.97362        34.38161        -1.15863
C         11.09663        36.43878        -0.17506
C          9.86405        35.67831        -0.46377
C         10.98618        37.61643         0.71366
C          9.71478        38.10001         1.05922
C         13.37628         3.46467        -0.49843
C         12.15368         4.12758        -0.41459
C         13.43802         6.34962        -0.22092
C         12.16458         5.60386        -0.54868
C         13.42038         7.76188        -0.82506
C         12.17811         8.50464        -0.37753
C         13.44046        10.61609        -0.39219
C         12.22396         9.94035        -0.32400
C         13.48251        12.05840        -0.45973
C         12.24126        12.79504        -0.37361
C         13.53549        14.91094        -0.65860
C         12.27962        14.21301        -0.51082
C         13.57257        16.32699        -0.72791
C         12.30942        17.06910        -0.93128
C         13.59182        19.19104        -0.80355
C         12.32608        18.54283        -0.76723
C         13.61100        20.65409        -0.92161
C         12.33152        21.41591        -0.61300
C         13.62345        23.52848        -0.50436
C         12.39277        22.86122        -0.36366
C         13.64274        24.95468        -0.47086
C         12.41262        25.67595        -0.48800
C         13.69993        27.78046        -0.81217
C         12.40783        27.08970        -0.69417
C         13.71424        29.29944        -0.80401
C         12.41214        29.99210        -0.83161
C         13.59174        32.15054        -0.11994
C         12.40634        31.43999        -0.78370
C         13.88242        33.54976        -0.70630
C         12.58087        34.37481        -0.89002
C         13.58617        36.36983         0.38934
C         12.47578        35.80197        -0.38187
C         13.43852        37.60544         1.05613
C         12.15739        38.22134         1.18266
C         15.84151         3.46941        -0.89372
C         14.62954         4.16627        -0.66793
C         15.88067         6.29477        -0.71748
C         14.67312         5.58528        -0.60464
C         15.91713         7.73557        -0.55344
C         14.69249         8.48808        -0.46472
C         15.92995        10.60133        -0.29189
C         14.68942         9.87580        -0.34999
C         15.95410        11.97864        -0.46993
C         14.71623        12.72958        -0.55738
C         15.98603        14.87951        -0.69424
C         14.75761        14.17527        -0.63977
C         16.01975        16.29080        -0.70526
C         14.79825        17.02573        -0.71266
C         16.05320        19.18673        -0.72886
C         14.81530        18.47925        -0.75754
C         16.07747        20.62897        -0.70822
C         14.87314        21.37792        -0.76416
C         16.10199        23.47993        -0.50759
C         14.86445        22.78578        -0.61846
C         16.11446        24.90625        -0.39387
C         14.89898        25.64364        -0.43834
C         16.12696        27.77056        -0.23267
C         14.93207        27.06402        -0.44136
C         16.12141        29.22701        -0.10878
C         14.92927        29.98176        -0.30783
C         16.09359        32.04697         0.28667
C         14.89897        31.36466        -0.06699
C         16.08142        33.50696         0.48812
C         14.96589        34.23241         0.12354
C         16.02685        36.33087         1.14231
C         14.89160        35.68752         0.35984
C         15.75501        37.55003         1.93727
C         14.52126        38.17847         1.80197
C         18.30831         3.45740        -1.22098
C         17.06503         4.15222        -1.01035
C         18.33665         6.28169        -0.94294
C         17.09894         5.57840        -0.89806
C         18.36791         7.69597        -0.74105
C         17.14533         8.39668        -0.49806
C         18.44570        10.54177        -0.38318
C         17.18694         9.81780         0.00050
C         18.41564        11.99296        -0.39340
C         17.23252        12.67948        -0.51022
C         18.50743        14.86135        -0.50119
C         17.26532        14.12319        -0.94881
C         18.47578        16.30083        -0.47734
C         17.28956        17.00374        -0.66447
C         18.51143        19.16791        -0.70572
C         17.29552        18.46872        -0.69181
C         18.54821        20.59653        -0.62973
C         17.31698        21.32832        -0.61178
C         18.57005        23.45190        -0.38632
C         17.32928        22.75182        -0.51426
C         18.57868        24.87547        -0.23357
C         17.34665        25.60507        -0.25979
C         18.56689        27.68579         0.19547
C         17.34528        27.02247        -0.10394
C         18.49693        29.09295         0.63316
C         17.29159        29.90374         0.31287
C         18.54599        32.03549         0.81549
C         17.28925        31.30849         0.46694
C         18.44577        33.39306         1.39451
C         17.23061        34.15181         1.13672
C         18.26807        36.15746         2.22576
C         17.16435        35.48029         1.51922
C         17.95898        37.35360         3.03962
C         16.72587        38.01148         2.85664
C         19.49588         4.13380        -1.29599
C         20.76618         6.27698        -1.18650
C         19.55322         5.56222        -1.14940
C         20.78566         7.66597        -1.04602
C         19.60501         8.40041        -0.83050
C         20.74733        10.64288        -1.20483
C         19.59662         9.86550        -0.74712
C         20.80485        11.98273        -1.04923
C         19.74806        12.67635        -0.21881
C         20.93671        14.89985        -0.15240
C         19.69570        14.17814        -0.33959
C         20.97848        16.24807        -0.11772
C         19.72138        17.07696        -0.07701
C         21.03142        19.18641        -0.61692
C         19.79505        18.37588        -0.89144
C         21.01208        20.52923        -0.49381
C         19.78184        21.29631        -0.51803
C         21.01157        23.45475        -0.23586
C         19.79678        22.71999        -0.38491
C         21.01482        24.81868        -0.06475
C         19.80599        25.57232        -0.04879
C         21.02284        27.72692         0.39018
C         19.78963        26.98996         0.20304
C         21.03922        29.04333         0.71196
C         19.79266        29.76767         0.99632
C         20.81892        31.85213         1.97308
C         19.82359        31.26249         1.06936
C         20.67156        33.12007         2.42779
C         19.51531        33.92169         2.10973
C         20.26981        35.77492         3.74886
C         19.49993        35.33024         2.58061
C         20.01523        36.98916         4.33825
C         18.89840        37.78766         3.98455
O          2.97153        34.11576        -2.75715
O          5.02871        35.39218        -2.32944
O          2.88925        18.83675        -1.43738
O          6.77403        23.54006         1.27597
O          3.02057        31.57903        -0.24146
O          2.16566        22.20895         1.04166
O         19.61176        31.92878        -0.20972
O          1.32636         7.12072         3.47798
O          7.99700        14.66307         1.53176
O         12.69378        21.11021        -1.99334
O         11.60530        16.56669        -2.14233
O         11.90805        36.71356        -1.37094
O         19.50620        36.28080         1.45702
O         18.94307        29.20936         2.05294
O         15.92320        36.50160        -0.31131
O          6.82798        24.92184        -2.04165
O         13.90527        28.54791        -2.05220
O         10.12975        30.59979        -2.71900
O          8.03322         8.04918         2.09547
O         11.41309         6.04937        -1.71991
O          1.97504        29.67647        -3.37319
O          9.34396        34.28823        -2.47108
O         12.12107        34.21187        -2.26039
O         10.86901        21.03977         1.31669
O          9.52377        18.60523         1.35979
O          3.42330        25.45137         1.11041
H          3.30152        26.43233         1.13129
O          6.94021         6.00341        -1.31563
H          6.13167         5.51121        -1.57436
O         20.13562        12.44423         1.18406
H         20.09067        11.47601         1.33759
O         13.17247        32.38103         1.26135
H         13.15637        31.51812         1.72593
O          2.91933        10.57974         3.30421
H          3.82216        10.25753         3.51182
O         17.37273        14.04916        -2.41987
H         17.42492        14.96988        -2.75522
O         19.54223        17.47073         1.31610
H         19.51095        16.65299         1.85576
O          6.04659        29.45186         0.57206
H          6.77819        28.97408         1.02009
O         17.21877         9.69392         1.48112
H         17.87737         9.00101         1.70114
O         14.47461        33.36101        -2.00035
H         13.78175        33.55558        -2.67688
O          9.21328        17.44069        -2.02205
H          9.96437        17.28666        -2.64475
O          4.82440        21.50166         1.85018
H          5.45395        22.20966         2.12347
O          2.81056         6.28564         0.00248
H          2.71564         5.34043        -0.24480
O          4.23032        28.55232        -3.17355
H          3.51215        28.79125        -3.81026
O         10.44120         8.76778         1.97098
H          9.66133         8.77263         2.57813
O          6.09839        11.78405        -1.57611
H          5.30513        11.27347        -1.84035
O          3.44714        28.30834         0.41014
H          4.23291        28.84232         0.69561
O          5.96832        35.93219         1.87883
H          5.87124        36.31979         2.77393
O         19.85393        17.97550        -2.29462
H         19.91321        18.79035        -2.83593
O          0.38777        33.95275        -2.80219
H          1.11617        34.01889        -3.46159
O         10.65922        10.61814        -1.95721
H         11.42767        11.02873        -2.40868
O         13.46784         6.51529         1.22547
H         13.66999         5.64663         1.63117
O          6.33893        37.51094        -1.38986
H          6.24073        37.14193        -2.29597
O          4.74673        14.25250        -1.73507
H          3.89892        13.86334        -2.03375
O         13.43810         7.66903        -2.26845
H         12.63188         7.15951        -2.53230
H          1.97458         2.02938         2.44044
H          0.30935         2.81746         4.14673
H          0.12082         5.28802         4.58409
H         -0.78393         8.39980         2.84025
H         -0.87153        10.57184         1.60015
H         -0.79703        12.48321         2.01951
H         -0.83589        14.90696         1.74955
H         -0.86669        16.78850         1.48645
H         -0.95594        19.18738         0.95656
H         -1.02619        20.89176        -0.73400
H         -0.88905        23.25803        -1.32026
H         -0.60917        24.86393        -2.37052
H         -0.56175        27.26597        -2.91919
H         -0.92057        29.21829        -1.86441
H         -0.99986        31.67943        -1.80267
H         -0.84079        33.18892        -0.29051
H         -0.74263        35.38175         0.79714
H          0.22610        37.57726         1.07210
H          3.77182         2.36988         1.05139
H          2.33118        38.85429         1.43146
H          6.02825         2.43510         0.39122
H          4.73351        38.69659         1.70487
H          8.43917         2.42396        -0.02150
H          7.25205        38.69656         1.86636
H         10.84324         2.39632        -0.32498
H          9.64047        38.98826         1.70453
H         13.39660         2.36457        -0.47535
H         12.07789        39.13910         1.78395
H         15.82682         2.37148        -0.96472
H         14.32653        39.10071         2.36937
H         18.28860         2.36232        -1.32273
H         16.50349        38.90673         3.45693
H         20.43484         3.58460        -1.45975
H         21.70955         5.73307        -1.33909
H         21.75139         8.18789        -1.09666
H         21.55193        10.12053        -1.74234
H         21.66934        12.55159        -1.42161
H         21.86589        14.31716        -0.07016
H         21.94251        16.75705         0.02528
H         21.99869        18.66352        -0.60940
H         21.96565        21.05552        -0.35042
H         21.97569        22.93017        -0.24062
H         21.98007        25.32513         0.06582
H         21.97904        27.22064         0.20207
H         21.98677        29.60093         0.72587
H         21.65780        31.22885         2.31473
H         21.44523        33.54684         3.08006
H         21.05079        35.12680         4.16981
H         20.64845        37.32134         5.17360
H         18.70437        38.71342         4.54501
