         480
 CSIRO Nanostructure Databank - Neutral Graphene Oxide Data Set
C         38.26945        49.97592        -2.83952
C         37.13013        50.64815        -3.27519
C         38.31054        52.74488        -3.09954
C         37.15235        52.03949        -3.41025
C         40.69286        48.53282        -2.06760
C         40.65932        49.94265        -2.08800
C         39.45622        50.66789        -2.52933
C         40.68045        52.83836        -2.31588
C         39.47439        52.08387        -2.65359
C         40.80122        54.18136        -2.52437
C         42.93121        48.53713        -1.11321
C         41.79448        47.85028        -1.56438
C         42.96445        49.95422        -1.22749
C         41.81517        50.64265        -1.68645
C         43.16434        52.75130        -1.93503
C         41.80514        52.15076        -1.55954
C         43.13156        54.26094        -1.77990
C         41.98395        54.90413        -2.10464
C         45.23195        45.70035         0.04378
C         44.11770        46.33736        -0.40022
C         45.30588        48.54411        -0.11332
C         44.01923        47.80516        -0.40315
C         45.42005        49.92622        -0.66534
C         44.18985        50.70951        -0.94220
C         45.54028        52.79771        -0.98707
C         44.30246        52.05786        -1.21307
C         45.58459        54.20041        -1.10577
C         44.32941        55.02898        -1.27359
C         45.81863        56.90604        -1.93639
C         44.62233        56.28453        -2.06213
C         47.62038        44.26303         1.03812
C         47.61699        45.67250         0.87184
C         46.45269        46.38945         0.41418
C         47.75452        48.47025         0.43553
C         46.53540        47.78020         0.21130
C         47.97538        49.88456        -0.07300
C         46.73386        50.63294        -0.54633
C         47.83788        52.83595        -0.11473
C         46.72008        52.11330        -0.55318
C         47.92435        54.23674        -0.30887
C         46.80110        54.91455        -0.87537
C         48.09793        57.02458        -0.86574
C         46.90677        56.30367        -1.19491
C         48.22885        58.41036        -1.14480
C         49.91854        44.28640         1.85965
C         48.73493        43.59486         1.50741
C         49.93980        45.68079         1.72195
C         48.80624        46.38971         1.20966
C         50.05700        48.56349         1.36578
C         48.85492        47.80995         1.00338
C         50.07074        49.98633         1.30013
C         48.84490        50.68115         0.86983
C         50.14004        52.88264         0.95569
C         48.88053        52.17097         0.69191
C         50.22234        54.27596         0.64652
C         49.11450        54.95824         0.05461
C         50.36997        57.09813         0.12851
C         49.19413        56.35849        -0.21842
C         50.45583        58.48087        -0.15711
C         49.37856        59.10912        -0.80934
C         52.28510        41.42818         1.83017
C         51.14601        42.07472         2.17454
C         52.41776        44.22868         2.22255
C         51.09511        43.53877         2.51124
C         52.43129        45.69609         2.41434
C         51.14022        46.44877         2.13699
C         52.41347        48.61646         2.01469
C         51.19065        47.89461         1.84752
C         52.42054        50.03901         1.93404
C         51.20107        50.74409         1.66390
C         52.40622        52.93617         1.92215
C         51.21715        52.17924         1.50887
C         52.54842        54.33308         1.50951
C         51.43111        54.99930         0.93792
C         52.63371        57.11527         1.17490
C         51.49230        56.40296         0.72788
C         52.47870        58.61029         1.31903
C         51.76112        59.21867         0.11283
C         52.56951        61.39770         1.01682
C         51.63899        60.71664         0.31584
C         54.77533        40.00756         0.98755
C         54.70264        41.39401         1.19754
C         53.54923        42.10335         1.65926
C         54.85437        44.27261         1.76420
C         53.56577        43.53251         1.87801
C         54.84205        45.74351         1.66189
C         53.75900        46.45890         2.42466
C         54.82442        48.59665         1.70491
C         53.64951        47.90821         2.01064
C         54.84887        50.01331         1.82803
C         53.66707        50.72121         2.03201
C         54.98727        52.90020         2.14861
C         53.71564        52.17652         2.24302
C         55.00105        54.32226         2.08131
C         53.76208        55.01714         1.74656
C         54.94622        57.14859         2.15680
C         53.76170        56.43021         1.63834
C         54.91645        58.64140         2.19844
C         53.74845        59.36818         1.65026
C         54.78557        61.49886         2.38970
C         53.71994        60.72873         1.62144
C         54.87401        62.95876         2.02459
C         57.14629        40.02639         0.27076
C         55.95508        39.36038         0.55298
C         57.14351        41.49248         0.27846
C         55.87911        42.17216         0.76434
C         57.11435        44.31143         0.50608
C         56.06773        43.55826         1.25053
C         56.83355        45.63205         0.25555
C         55.83364        46.40037         0.97703
C         57.26437        48.63865         0.83524
C         55.95334        47.88896         1.03972
C         57.40330        49.96460         1.54636
C         56.14749        50.69609         1.98443
C         57.44535        52.81707         2.14151
C         56.20593        52.16350         2.08778
C         57.45194        54.24712         2.66900
C         56.23253        55.02273         2.21385
C         57.44541        57.19448         2.21301
C         56.26081        56.45226         2.19050
C         57.42956        58.65550         2.12428
C         56.20766        59.34932         2.20545
C         57.42420        61.57447         2.00588
C         56.14546        60.79799         2.35274
C         57.30212        62.97342         1.57850
C         56.01557        63.61363         1.70579
C         59.61568        37.27227        -0.47599
C         58.43454        37.96346        -0.32878
C         59.61883        40.04503         0.16594
C         58.41158        39.35507         0.02556
C         59.68085        41.50235         0.57714
C         58.40876        42.26082         0.28723
C         59.61668        44.38014        -0.32153
C         58.36595        43.63107         0.17947
C         59.73677        45.86153        -0.01079
C         58.69013        46.83746        -0.48746
C         59.75232        48.63380         0.68463
C         58.54859        47.98026         0.49678
C         59.75852        50.13497         0.64002
C         58.59646        50.78623         1.34067
C         59.87857        52.87130         1.53663
C         58.63943        52.11755         1.75424
C         59.86137        54.33094         1.60767
C         58.85871        54.96303         2.55941
C         59.91144        57.19873         1.73244
C         58.78710        56.55185         2.53189
C         59.98741        58.70399         1.81708
C         58.63510        59.39622         1.83838
C         59.71056        61.50479         1.06621
C         58.60233        60.78312         1.61059
C         59.67298        62.90026         0.89418
C         58.44113        63.63492         1.09599
C         59.57218        65.68266         0.39424
C         58.43261        65.03521         0.78409
C         62.12310        35.74673        -0.37345
C         62.08772        37.13625        -0.23392
C         60.87111        37.86564        -0.17579
C         62.20359        40.06604         0.19069
C         60.86967        39.28354         0.21147
C         62.16135        41.52789         0.00662
C         60.93087        42.23707         0.11137
C         62.14484        44.34608        -0.04539
C         60.90609        43.63048        -0.02883
C         62.19097        45.75752         0.17586
C         60.95358        46.48957         0.26580
C         62.22937        48.59018         0.68129
C         60.98921        47.92278         0.48888
C         62.24089        50.01790         0.97779
C         61.06894        50.74733         1.01227
C         62.24643        52.91755         0.75917
C         61.02950        52.17557         1.20661
C         62.31871        54.30728         1.37154
C         61.01025        55.04851         1.29140
C         62.21843        57.19538         0.81584
C         61.02976        56.49997         1.31445
C         62.22600        58.56604         0.56344
C         60.93075        59.27955         0.76869
C         62.08225        61.48500         0.17300
C         60.85529        60.75589         0.51573
C         62.08780        62.86218         0.22573
C         60.85644        63.60204         0.46931
C         62.03922        65.71724        -0.04733
C         60.81648        64.98902         0.25322
C         62.05487        67.07031        -0.41958
C         64.55804        35.65400        -0.54711
C         63.33801        35.01625        -0.40177
C         64.49243        37.13388        -0.84625
C         63.42472        37.83309         0.00497
C         64.53656        40.01872        -0.60877
C         63.40666        39.33392        -0.23463
C         64.59177        41.47176        -0.56001
C         63.36116        42.20709        -0.31103
C         64.58217        44.36536        -0.35812
C         63.36536        43.63272        -0.23344
C         64.64469        45.73751        -0.06033
C         63.42827        46.45695         0.25681
C         64.72908        48.53218         0.80765
C         63.43703        47.84824         0.58563
C         64.78385        50.00974         0.96173
C         63.51705        50.70998         1.42261
C         64.69316        52.87339         1.00124
C         63.53216        52.17392         1.03651
C         64.70525        54.31807         0.70648
C         63.52005        55.00886         0.79684
C         64.64298        57.14123        -0.05414
C         63.39240        56.41381         0.39512
C         64.63566        58.61696        -0.00576
C         63.39179        59.27514         0.11586
C         64.55754        61.49646        -0.41484
C         63.23935        60.70307        -0.40977
C         64.55942        62.92740        -0.09533
C         63.32645        63.61627         0.06504
C         64.53620        65.83105         0.16660
C         63.28186        65.02017         0.02610
C         64.50225        67.17383        -0.53496
C         63.25813        67.74775        -0.73427
C         67.12011        32.89033        -0.19393
C         65.90672        33.57211        -0.28789
C         67.03898        35.72043        -0.59326
C         65.83894        34.98375        -0.48280
C         67.02579        37.14741        -0.83864
C         65.81889        37.83538        -0.82293
C         67.06394        40.03760        -1.15199
C         65.75472        39.28496        -1.04221
C         67.07977        41.48298        -0.85462
C         65.80449        42.15224        -0.69514
C         67.10471        44.35710        -0.71110
C         65.79466        43.62755        -0.74050
C         67.11492        45.78498        -0.34594
C         65.91831        46.42326        -0.08034
C         67.17538        48.62452        -0.00749
C         65.98046        47.82070         0.39471
C         67.22230        50.07469         0.36510
C         65.96685        50.68328         0.92565
C         67.22256        52.91859         0.95670
C         65.97356        52.15115         1.16920
C         67.16834        54.36753         0.63626
C         65.95915        55.00167         0.43938
C         67.17958        57.20827         0.21234
C         65.96939        56.39128        -0.18238
C         67.13306        58.63417         0.13856
C         65.89039        59.30143        -0.07534
C         67.12342        61.51873        -0.04634
C         65.89517        60.74924        -0.31920
C         67.06324        62.91749        -0.07727
C         65.80733        63.65151        -0.08758
C         67.01393        65.86004        -0.00882
C         65.79123        65.04882        -0.07431
C         66.96928        67.26774        -0.46601
C         65.75713        67.88000        -0.75743
C         66.90352        69.90928        -1.58770
C         65.76766        69.20324        -1.35882
C         69.67361        31.51754         0.31495
C         69.61638        32.89055        -0.03676
C         68.34643        33.56033        -0.19333
C         69.54410        35.63103        -0.90974
C         68.34035        35.06878        -0.18642
C         69.52319        37.12388        -1.21820
C         68.27688        37.88292        -1.00128
C         69.56968        39.99487        -1.08521
C         68.31764        39.26638        -1.05171
C         69.56018        41.42043        -0.96638
C         68.30295        42.13055        -0.77342
C         69.53169        44.29334        -1.10920
C         68.37025        43.59621        -0.38691
C         69.58058        45.79089        -0.83276
C         68.39120        46.49822        -0.41520
C         69.61445        48.65049        -0.67914
C         68.42081        47.88309        -0.29584
C         69.74263        50.15244        -0.22774
C         68.60444        50.68901         0.70544
C         69.59724        52.99623         0.94677
C         68.50121        52.21059         0.72942
C         69.63021        54.41914         0.71390
C         68.41665        55.09826         0.54348
C         69.63637        57.25677         0.49562
C         68.39429        56.53360         0.38703
C         69.61740        58.68457         0.49403
C         68.36067        59.38921         0.29480
C         69.56234        61.57529         0.48550
C         68.33753        60.80134         0.20723
C         69.66351        62.97625         0.00018
C         68.31591        63.67468        -0.19471
C         69.59291        65.82172        -0.38905
C         68.32399        65.14396         0.02849
C         69.53536        67.26953        -0.73581
C         68.24184        68.00937        -0.58905
C         69.49369        70.01478        -1.64700
C         68.21997        69.43134        -1.13729
C         69.48753        71.25613        -2.29649
C         72.08775        31.58405         0.39316
C         70.88440        30.87424         0.52531
C         72.06463        32.92611         0.03130
C         70.84954        33.60368        -0.20467
C         71.98809        35.68463        -1.01769
C         70.84209        34.97732        -0.68821
C         71.97213        37.07842        -1.28151
C         70.80778        37.83238        -1.26145
C         72.00398        40.01971        -1.21825
C         70.80139        39.28641        -1.19795
C         71.99384        41.40666        -1.11907
C         70.79588        42.12398        -0.99925
C         71.95512        44.35190        -1.54147
C         70.86762        43.62487        -0.77960
C         71.88923        45.69203        -1.66157
C         70.75286        46.46623        -1.15307
C         71.98968        48.62487        -1.31752
C         70.82817        47.90695        -1.05321
C         72.10666        49.99227        -0.99095
C         71.12703        50.70126        -0.30613
C         72.14641        53.04967        -0.42385
C         71.42803        52.03785         0.17843
C         72.01338        54.42967        -0.05944
C         70.89364        55.08165         0.46809
C         72.07163        57.26461         0.65858
C         70.87152        56.54328         0.54325
C         72.05742        58.65292         0.71731
C         70.85723        59.37386         0.63635
C         72.10961        61.62089         0.50303
C         70.89512        60.84777         0.73400
C         72.07742        63.01430         0.44979
C         70.89981        63.73807         0.24150
C         72.06922        65.96201        -0.35250
C         70.86917        65.25954         0.22452
C         72.00709        67.26838        -0.76677
C         70.79831        68.02640        -0.86299
C         71.94065        70.06230        -1.72186
C         70.74737        69.36848        -1.37870
C         71.90534        71.29938        -2.34746
C         70.67551        71.89471        -2.65631
O         57.45001        46.24207        -0.83190
O         69.54651        66.19012        -1.78613
O         68.32129        69.15749         0.30784
O         63.69292        56.62967        -1.04918
O         66.92919        49.68225        -1.01306
O         65.32326        61.16148        -1.62444
O         59.58772        54.59810         3.72480
O         69.31530        49.79331        -1.55338
O         69.11230        63.22873        -1.33790
O         44.28509        48.41879         0.91969
O         51.57984        46.14674         3.53220
O         70.07109        61.39696         1.83412
O         69.33060        36.08830        -2.26529
O         46.32074        50.02691        -1.83650
O         54.63947        57.86122         3.42482
O         61.65735        39.56950         1.47387
O         52.83260        52.66608         3.29365
O         48.24029        51.51725         1.88223
O         55.91708        43.75525         2.67786
O         56.15058        42.06263        -0.66478
O         66.47706        44.10042        -2.00101
O         60.35660        59.73768        -0.47503
O         56.98629        49.96412         2.94986
O         57.02096        61.32235         3.40266
O         67.76913        65.61008         1.27516
O         66.27397        39.70958        -2.35408
O         56.25766        48.59451        -0.22959
O         65.61902        47.89503         1.81668
O         70.77883        52.37674         1.36788
O         66.74422        52.57520         2.35881
O         43.37407        52.46563        -3.34895
H         44.28890        52.72826        -3.58168
O         71.14376        43.82431         0.64442
H         71.98095        43.36073         0.85720
O         69.33316        44.11059        -2.52699
H         68.38741        44.27786        -2.73997
O         59.02929        56.98009         3.90460
H         59.43568        56.15960         4.32545
O         59.58926        50.41285        -0.81263
H         59.53845        49.54679        -1.28295
O         68.50933        43.69226         1.04735
H         69.47077        43.62630         1.26949
O         48.82311        49.73721        -1.25381
H         48.22131        49.50142        -1.99775
O         63.75770        37.66346         1.40434
H         63.08443        38.17150         1.91570
O         54.34619        61.46139         3.77802
H         55.14709        61.61613         4.32781
O         64.02142        37.27256        -2.22565
H         64.76618        37.05934        -2.82680
O         50.84942        43.59731         3.94899
H         50.95319        44.54456         4.21299
O         51.60244        58.79915         2.46342
H         52.11271        58.56902         3.26987
O         62.54906        54.18307         2.80720
H         61.66693        54.20228         3.25840
O         68.54829        35.46781         1.22239
H         67.81506        35.08355         1.74892
O         60.61650        59.01053         3.09980
H         60.13083        58.45574         3.76692
O         66.15600        56.14187        -1.61306
H         65.25505        55.98462        -1.98341
O         62.86252        60.51059        -1.80329
H         63.70154        60.38652        -2.30656
O         59.77524        41.49404         2.04393
H         60.51099        40.87322         2.27163
O         41.60259        52.43170        -0.14742
H         40.71975        52.09274         0.10783
O         57.21423        54.14127         4.09633
H         58.13877        54.16413         4.48935
O         52.61320        58.99646        -1.04727
H         52.16893        59.38436        -1.82964
O         62.12138        53.07589        -0.68370
H         61.72641        52.25560        -1.04914
O         59.13249        47.43171        -1.73692
H         58.32154        47.69865        -2.22081
O         63.50550        50.65637         2.87983
H         64.21644        51.24516         3.21209
O         68.93598        50.22188         2.03239
H         68.40784        50.74058         2.67793
O         54.19583        46.49151         3.81084
H         53.39685        46.66432         4.35808
O         64.59451        66.17624         1.61595
H         63.82169        66.75199         1.80221
O         59.48253        44.31494        -1.78331
H         58.73298        44.90162        -2.03079
O         70.78356        65.65605         1.63532
H         71.53539        65.25021         2.11573
O         43.96287        55.48006         0.07654
H         44.73784        55.95217         0.44878
H         38.22217        48.88366        -2.73787
H         36.21722        50.08373        -3.50986
H         38.30414        53.83891        -3.19648
H         36.25699        52.57659        -3.75239
H         39.83139        47.94677        -2.41232
H         39.99132        54.76282        -2.98756
H         41.75458        46.75410        -1.50820
H         41.92147        56.00126        -2.05260
H         45.22571        44.60186         0.05874
H         43.26910        45.73918        -0.76097
H         45.98016        57.87162        -2.43687
H         43.81597        56.75833        -2.64067
H         46.72381        43.67704         0.79708
H         47.40793        58.95173        -1.63329
H         48.68459        42.50389         1.61962
H         49.43303        60.17867        -1.05681
H         52.24292        40.34356         1.65552
H         50.23206        41.48427         2.33132
H         52.48373        62.48934         1.11460
H         50.82323        61.26984        -0.17308
H         53.91340        39.37112         1.23149
H         53.95014        63.54406         2.13984
H         55.93390        38.26181         0.50952
H         55.94991        64.69249         1.50511
H         59.57799        36.22207        -0.79511
H         57.48551        37.44691        -0.52372
H         59.53049        66.76366         0.20565
H         57.50707        65.61368         0.90042
H         61.18535        35.17312        -0.38302
H         61.11236        67.61849        -0.54773
H         63.27812        33.92272        -0.30764
H         63.17309        68.76703        -1.13654
H         67.09063        31.79368        -0.12772
H         64.97882        32.98702        -0.25291
H         66.83836        70.85207        -2.14931
H         64.81517        69.62559        -1.70743
H         68.74327        30.94924         0.44932
H         68.53405        71.75762        -2.51112
H         73.04728        31.07970         0.57178
H         70.89999        29.81263         0.80790
H         73.01812        33.46108        -0.07482
H         72.97187        35.19851        -0.95985
H         72.94612        37.57475        -1.39186
H         72.96872        39.50389        -1.30694
H         72.95334        41.94360        -1.12395
H         72.82052        43.80477        -1.94295
H         72.70179        46.22645        -2.17394
H         72.88716        48.11191        -1.68730
H         73.08602        50.47263        -1.13446
H         72.81746        52.81355        -1.26316
H         72.82139        55.08060        -0.43102
H         73.02995        56.73542         0.74495
H         73.00736        59.18675         0.85350
H         73.07504        61.10809         0.40105
H         73.03691        63.55434         0.46253
H         73.04677        65.45797        -0.33270
H         72.95127        67.74654        -1.06606
H         72.91707        69.61221        -1.49931
H         72.84355        71.80923        -2.60603
H         70.64291        72.87196        -3.15657
