         620
 CSIRO Nanostructure Databank - Neutral Graphene Oxide Data Set
C         23.03583        27.76228         1.62883
C         23.07730        29.13594         1.57156
C         23.02860        32.11222         1.13896
C         23.00281        33.40488         0.68911
C         22.87028        36.04455        -0.75923
C         22.88937        37.45586        -0.86946
C         22.95683        40.38370        -0.90771
C         22.99183        41.76409        -0.82061
C         23.03179        44.65137        -0.28733
C         23.05918        46.02965        -0.21169
C         25.25193        24.81267         1.09463
C         24.13545        25.57297         1.36832
C         25.41134        27.64562         0.97414
C         24.19264        26.99173         1.32748
C         25.43277        29.08709         0.88175
C         24.26786        29.81689         1.20165
C         25.38515        31.84771         0.13573
C         24.25002        31.28982         1.06303
C         24.94320        32.98630        -0.64024
C         23.99697        33.90855        -0.23572
C         25.28110        35.90481        -1.25635
C         24.01183        35.26086        -0.81598
C         25.33006        37.45343        -1.17533
C         24.07444        38.17159        -0.91747
C         25.38497        40.27338        -0.59581
C         24.13465        39.61462        -0.79880
C         25.39405        41.68205        -0.45777
C         24.20522        42.43685        -0.56834
C         25.45636        44.58390        -0.45201
C         24.23078        43.90301        -0.43157
C         25.50743        45.99676        -0.33337
C         24.29075        46.73041        -0.23510
C         25.54175        48.81580        -0.12532
C         24.34026        48.15449        -0.15313
C         27.82811        23.29206         1.19657
C         27.70243        24.59724         0.53003
C         26.48761        25.43458         0.78139
C         27.86867        27.49259         0.51653
C         26.55515        26.82858         0.69384
C         27.87879        28.98153         0.36884
C         26.61035        29.74952         0.31576
C         27.71487        31.55425        -1.10689
C         26.55193        31.01228        -0.23553
C         27.83767        33.06853        -1.23195
C         26.70164        33.83707        -1.48981
C         27.82074        35.88516        -1.00564
C         26.60676        35.20927        -1.21570
C         27.82137        37.31122        -0.63767
C         26.59667        38.13756        -0.80221
C         27.90427        40.15698        -0.02664
C         26.61450        39.48343        -0.50897
C         27.92848        41.64808        -0.28287
C         26.65104        42.41961        -0.05366
C         27.98346        44.52849        -0.36836
C         26.71161        43.79367        -0.72485
C         27.99234        45.94458        -0.23278
C         26.76570        46.69473        -0.26394
C         28.04417        48.79909         0.00480
C         26.78540        48.10736        -0.14737
C         28.12916        50.21846         0.08485
C         30.26237        23.22790         0.84042
C         29.01419        22.63770         1.28019
C         30.27312        24.52512         0.36037
C         29.01720        25.26550         0.12708
C         30.26872        27.40842        -0.16421
C         29.08116        26.74581         0.10233
C         30.35785        28.84476        -0.27812
C         29.14126        29.65662        -0.05814
C         30.27753        31.64348        -1.18159
C         29.05405        31.03007        -0.61440
C         30.31308        33.01146        -1.34551
C         29.06737        33.76102        -1.19990
C         30.30568        35.90785        -1.21729
C         29.05609        35.18199        -1.11724
C         30.36996        37.28027        -1.01729
C         29.16080        38.00283        -0.57340
C         30.36353        40.13865        -0.60040
C         29.17245        39.47506        -0.52556
C         30.39983        41.56730        -0.11469
C         29.10955        42.32148        -0.33367
C         30.41843        44.46065        -0.10208
C         29.16650        43.78624        -0.29360
C         30.43479        45.87306         0.08708
C         29.22307        46.62114         0.00691
C         30.48331        48.70974         0.40898
C         29.24595        48.04851         0.12569
C         30.53568        50.14378         0.52434
C         29.32434        50.86367         0.32106
C         32.85974        20.48086         1.38835
C         31.61173        21.17084         1.30214
C         32.76906        23.31902         1.03959
C         31.52606        22.52023         1.04052
C         32.81670        24.60750         0.34150
C         31.52915        25.16799        -0.08040
C         32.79670        27.36042        -0.50569
C         31.50610        26.64483        -0.45204
C         32.77578        28.74489        -0.79985
C         31.51781        29.44590        -0.77236
C         32.78186        31.53599        -1.65648
C         31.47076        30.80982        -1.34259
C         32.74150        33.01159        -1.74758
C         31.55013        33.70479        -1.65630
C         32.77013        35.97543        -1.91273
C         31.48048        35.18805        -1.76229
C         32.81784        37.36505        -1.41983
C         31.60803        38.02741        -1.12463
C         32.84947        40.12300        -0.86115
C         31.62146        39.43790        -0.86100
C         32.87478        41.60361        -0.83032
C         31.60009        42.34195        -0.59308
C         32.89192        44.41123        -0.06052
C         31.65440        43.76259        -0.19613
C         32.91133        45.79932         0.32209
C         31.66958        46.53216         0.37113
C         32.84476        48.58621         1.12472
C         31.65110        47.93001         0.60522
C         32.92083        50.04694         1.15999
C         31.76398        50.80772         0.83603
C         33.03206        52.86094         1.24704
C         31.91973        52.25123         0.77451
C         35.37371        18.96188         1.05100
C         35.35454        20.40714         1.19013
C         34.07702        21.11659         1.26602
C         35.32389        23.28970         0.80155
C         34.10072        22.58958         1.21802
C         35.29210        24.60207         0.36602
C         34.01853        25.27277         0.10345
C         35.24740        27.33531        -0.58477
C         34.01123        26.64606        -0.36565
C         35.22873        28.69609        -0.98151
C         34.01146        29.43900        -1.06197
C         35.28650        31.53769        -1.52999
C         34.04565        30.83357        -1.36269
C         35.29783        32.98129        -1.74094
C         34.03342        33.68970        -2.00509
C         35.31902        35.90039        -1.75696
C         34.05361        35.22065        -2.06367
C         35.31312        37.33139        -1.51100
C         34.07221        38.03490        -1.31774
C         35.32890        40.15915        -0.99880
C         34.08564        39.43625        -1.03310
C         35.34924        41.59117        -0.70899
C         34.14692        42.31073        -0.58398
C         35.37822        44.35612         0.01235
C         34.13667        43.69056        -0.22766
C         35.39533        45.78138         0.32642
C         34.14754        46.44583         0.52957
C         35.41122        48.58472         1.04432
C         34.17758        47.80201         1.08053
C         35.37903        49.95882         1.40677
C         34.14283        50.65814         1.51191
C         35.41717        52.75833         2.13281
C         34.07515        52.07655         2.01422
C         35.46182        54.08526         2.55583
C         37.81632        18.86888         1.34159
C         36.52256        18.24069         1.04769
C         37.82741        20.40309         1.32456
C         36.54592        21.10978         1.16032
C         37.83604        23.22180         0.63232
C         36.59950        22.62045         1.24304
C         37.80829        24.58731         0.25686
C         36.54006        25.31278         0.10946
C         37.74804        27.39900        -0.46171
C         36.49321        26.63109        -0.34525
C         37.78134        28.66743        -1.24529
C         36.45789        29.37275        -1.44164
C         37.74466        31.48773        -2.13878
C         36.48504        30.82788        -1.59956
C         37.77852        32.97686        -1.80010
C         36.49696        33.69510        -1.77459
C         37.77816        35.86055        -1.74188
C         36.48745        35.14441        -1.76278
C         37.81235        37.35367        -1.61750
C         36.52141        38.05775        -1.43761
C         37.81299        40.21606        -1.44212
C         36.52839        39.45460        -1.20713
C         37.81927        41.57654        -0.79483
C         36.59610        42.27070        -0.50842
C         37.86125        44.32586         0.23277
C         36.58336        43.62979        -0.06143
C         37.93027        45.83068         0.54844
C         36.59092        46.51450         0.44110
C         37.86700        48.63587         0.79864
C         36.61889        47.91805         0.72519
C         37.84987        49.98796         1.28500
C         36.62791        50.65907         1.55921
C         37.87277        52.69906         2.22263
C         36.63165        52.04085         1.95757
C         37.89923        54.06531         2.64783
C         36.67856        54.73399         2.80044
C         40.35488        16.06850         1.06912
C         39.13677        16.75352         1.11731
C         40.30127        18.89937         0.97820
C         39.09662        18.15433         1.10245
C         40.28901        20.34200         0.87541
C         39.08234        21.08328         0.95562
C         40.28415        23.13423         0.32515
C         39.05180        22.47716         0.63498
C         40.27450        24.51441        -0.02651
C         39.03855        25.22411        -0.05077
C         40.26129        27.29946        -0.87647
C         39.05394        26.67145        -0.27441
C         40.34181        28.81703        -0.85390
C         39.03267        29.47151        -1.28593
C         40.30674        31.47250        -1.92269
C         39.02061        30.75861        -1.71501
C         40.27753        32.99560        -1.82313
C         38.96056        33.64120        -1.61122
C         40.22399        35.82041        -0.94936
C         38.96231        35.08780        -1.27221
C         40.27912        37.30668        -1.04828
C         39.07715        38.03376        -1.20863
C         40.29947        40.11765        -0.89689
C         39.07816        39.43405        -1.13649
C         40.30221        41.55521        -0.76569
C         39.04542        42.22169        -0.68805
C         40.24135        44.36258        -0.86523
C         39.08304        43.62748        -0.24243
C         40.20656        45.87220        -0.77093
C         39.02696        46.63657        -0.19249
C         40.27230        48.81885         0.41101
C         39.09253        48.06360         0.31260
C         40.33549        50.01977         1.22064
C         39.08588        50.66698         1.55611
C         40.34209        52.55932         2.57013
C         39.08545        51.95979         2.09619
C         40.38822        54.01199         2.80117
C         39.18048        54.73644         2.88519
C         40.45103        56.74065         3.43385
C         39.24061        56.11707         3.21069
C         42.83299        16.07637         0.99967
C         41.55832        16.77005         0.95869
C         42.76854        18.90325         0.69106
C         41.54385        18.19750         0.86118
C         42.76666        20.30919         0.62958
C         41.52620        21.02515         0.65816
C         42.75564        23.13927         0.31440
C         41.52369        22.43390         0.42764
C         42.74038        24.53091         0.00725
C         41.52102        25.17517        -0.25271
C         42.81423        27.30899        -0.80772
C         41.54814        26.53817        -0.80202
C         42.81174        28.62216        -1.20081
C         41.54350        29.29424        -1.68941
C         42.75627        31.53244        -1.65681
C         41.59001        30.80460        -1.66377
C         42.73080        32.97576        -1.57502
C         41.53652        33.66748        -1.47580
C         42.79063        35.84704        -0.94003
C         41.51615        35.06227        -0.96383
C         42.78535        37.31993        -0.88408
C         41.51374        37.99987        -0.87225
C         42.77441        40.10473        -0.30601
C         41.51120        39.41106        -0.76835
C         42.77152        41.59409        -0.51162
C         41.53574        42.24533        -0.56213
C         42.77803        44.47650        -0.27777
C         41.50439        43.70887        -0.36465
C         42.74414        45.92148        -0.61241
C         41.53750        46.47884        -0.97064
C         42.75936        48.81301         0.23436
C         41.52523        48.50629        -0.24452
C         42.85960        49.78694         1.37624
C         41.57294        50.56632         1.54628
C         42.90967        52.59683         2.28379
C         41.65126        51.81996         2.30600
C         42.89510        53.95644         2.70173
C         41.64880        54.64860         2.96236
C         42.92156        56.70271         3.44538
C         41.67108        56.03341         3.29210
C         44.00302        16.71982         0.80918
C         45.29375        18.92295         0.76434
C         44.04525        18.15864         0.36360
C         45.26331        20.34241         0.75753
C         44.01417        21.03370         0.58090
C         45.22268        23.17347         0.60848
C         44.00432        22.44126         0.47988
C         45.16103        24.63721         0.57964
C         43.97250        25.29366         0.00482
C         45.27398        27.37822        -0.35236
C         44.02256        26.62986        -0.36857
C         45.28066        28.71483        -0.75460
C         44.08489        29.35309        -1.31188
C         45.29137        31.64280        -1.32900
C         44.07444        30.84241        -1.59639
C         45.30078        33.00841        -1.48815
C         44.01703        33.71814        -1.68416
C         45.29322        35.91616        -1.27279
C         44.02062        35.19923        -1.46722
C         45.27223        37.30832        -1.10188
C         44.01556        38.01510        -0.92052
C         45.24364        40.16748        -0.80483
C         44.04490        39.43279        -0.74913
C         45.24694        41.60721        -0.68518
C         44.01640        42.31632        -0.51462
C         45.23016        44.48471        -0.57515
C         44.04029        43.74298        -0.46097
C         45.20181        45.94659        -0.48694
C         43.99401        46.65877        -0.52706
C         45.27878        48.80469         0.03753
C         43.97821        48.14353        -0.32008
C         45.28265        50.08995         0.79052
C         44.10456        50.65447         1.27815
C         45.33800        52.71324         1.88029
C         44.10502        51.98252         1.82700
C         45.35119        54.04605         2.38397
C         44.12098        54.68432         2.76842
C         44.09988        56.04958         3.18893
C         47.68807        18.99195         1.20708
C         46.51481        18.27488         0.98326
C         47.70607        20.40391         1.17554
C         46.47207        21.08857         0.93335
C         47.68825        23.26350         0.94167
C         46.44889        22.51840         0.85260
C         47.73184        24.65263         0.70982
C         46.47994        25.41472         0.59930
C         47.76110        27.40525        -0.17543
C         46.50497        26.75454         0.02394
C         47.77269        28.76537        -0.52494
C         46.50538        29.49819        -0.57187
C         47.81117        31.66547        -1.06105
C         46.52086        30.97300        -0.86598
C         47.79842        33.06425        -1.30988
C         46.53213        33.76937        -1.42867
C         47.73093        35.94684        -1.61791
C         46.49847        35.17661        -1.42917
C         47.73464        37.38635        -1.33642
C         46.50785        38.05939        -1.12122
C         47.71400        40.20644        -1.11919
C         46.49321        39.47780        -1.00260
C         47.70466        41.64996        -1.00915
C         46.47328        42.33879        -0.79656
C         47.69744        44.49587        -0.72300
C         46.46708        43.77576        -0.70560
C         47.69495        45.91617        -0.51002
C         46.47295        46.63867        -0.34458
C         47.75036        48.68067         0.21648
C         46.51795        48.01038        -0.00617
C         47.76557        50.07851         0.64718
C         46.53855        50.75328         0.95216
C         47.78856        52.79859         1.56433
C         46.55840        52.08596         1.47355
C         47.77132        54.12631         2.06410
C         46.59823        54.72657         2.46297
C         50.14711        20.50948         1.74922
C         48.91883        21.15758         1.38415
C         50.10223        23.33974         1.43514
C         48.91198        22.57523         1.23777
C         50.15873        24.71003         1.08569
C         48.96190        25.36205         0.64598
C         50.22379        27.41609         0.16963
C         48.99900        26.72389         0.18909
C         50.31617        28.76209        -0.41837
C         49.01034        29.48671        -0.79304
C         50.26124        31.66240        -0.86288
C         49.02626        30.96771        -0.89249
C         50.25815        33.08501        -1.03976
C         49.03515        33.75627        -1.30689
C         50.27236        35.97832        -1.30746
C         49.06368        35.19606        -1.59465
C         50.23193        37.37712        -1.37209
C         48.96092        38.09636        -1.38630
C         50.17316        40.26446        -1.69130
C         48.92816        39.50879        -1.32577
C         50.17703        41.70709        -1.25224
C         48.93788        42.37988        -1.06099
C         50.16909        44.52201        -0.90137
C         48.93204        43.80123        -0.87994
C         50.17128        45.93481        -0.70858
C         48.93183        46.62003        -0.45468
C         50.24667        48.64682         0.09206
C         48.94412        47.98663        -0.06882
C         50.26909        50.09014         0.57480
C         48.98293        50.77331         0.79571
C         50.24986        52.84389         1.16519
C         49.01707        52.15257         1.17051
C         51.25913        21.21617         2.09699
C         52.59928        23.47195         2.08723
C         51.26552        22.67848         2.04468
C         52.61068        24.82490         1.50425
C         51.39901        25.45206         1.11936
C         52.64539        27.54662         0.66590
C         51.42262        26.80883         0.66167
C         52.66993        28.95250         0.32165
C         51.50076        29.59137        -0.16505
C         52.70375        31.70705        -0.40119
C         51.50040        30.97285        -0.50659
C         52.78567        33.09339        -0.99149
C         51.47889        33.84473        -0.97556
C         52.71867        35.99277        -0.96952
C         51.48655        35.24781        -1.06881
C         52.70679        37.40078        -1.11072
C         51.46346        38.12478        -1.28721
C         52.65418        40.28047        -1.37741
C         51.44790        39.52861        -1.36000
C         52.65991        41.69108        -1.35106
C         51.40114        42.40869        -1.23358
C         52.63862        44.55979        -1.13436
C         51.40285        43.82864        -1.07732
C         52.63072        45.97991        -1.10297
C         51.39160        46.67143        -0.83232
C         52.55633        48.88332        -0.93169
C         51.39651        48.06417        -0.61260
C         52.65290        50.29568        -0.28048
C         51.47703        50.89815         0.38349
C         51.43840        52.24169         0.72025
C         55.04982        23.41119         1.94101
C         53.88319        22.76319         2.16899
C         55.09253        24.82824         1.64416
C         53.84811        25.50738         1.38387
C         55.08143        27.62449         1.07907
C         53.85572        26.89156         1.02395
C         55.08673        29.02781         0.83024
C         53.87401        29.69804         0.43585
C         55.08158        31.85925         0.25042
C         53.88899        31.08558         0.07434
C         55.12780        33.25105        -0.05411
C         53.96308        33.90607        -0.51956
C         55.17086        36.05396        -0.61401
C         53.95178        35.31013        -0.70591
C         55.17008        37.45545        -0.89262
C         53.94142        38.10715        -1.13344
C         55.22143        40.30724        -1.44022
C         53.91806        39.53310        -1.48652
C         55.15220        41.76622        -1.27916
C         53.90341        42.42623        -1.30335
C         55.10125        44.59054        -1.25450
C         53.88068        43.85964        -1.22735
C         55.05998        46.01755        -1.35162
C         53.84847        46.70559        -1.26672
C         55.09081        48.90811        -1.13772
C         53.79972        48.20518        -1.52693
C         55.12176        50.06987        -0.36872
C         53.98655        50.75322         0.06068
C         57.58931        24.88512         1.80781
C         56.30179        25.54138         1.64898
C         57.48493        27.71757         1.60242
C         56.29377        26.97104         1.45744
C         57.50429        29.10809         1.32710
C         56.28857        29.75463         0.97717
C         57.57634        31.97538         0.89254
C         56.24124        31.21591         0.86967
C         57.59249        33.33940         0.34132
C         56.36769        33.99470         0.03824
C         57.63237        36.09108        -0.33237
C         56.38966        35.37483        -0.31272
C         57.64207        37.50265        -0.56949
C         56.41621        38.19769        -0.84724
C         57.64533        40.34206        -0.89245
C         56.44122        39.59112        -1.03451
C         57.62711        41.77417        -1.01239
C         56.37503        42.48375        -1.15482
C         57.60212        44.62700        -1.21594
C         56.35835        43.89934        -1.21279
C         57.60159        46.03649        -1.39737
C         56.32935        46.73356        -1.63220
C         57.64815        48.92581        -1.35528
C         56.34415        48.27617        -1.57500
C         58.72526        25.58086         2.01490
C         59.97742        27.73529         1.74889
C         58.70777        27.06959         2.20571
C         59.98795        29.02929         1.36578
C         58.77144        29.81888         1.25587
C         60.03219        31.89416         0.66876
C         58.81851        31.18399         0.93974
C         60.03943        33.22966         0.35585
C         58.83323        33.99129         0.18113
C         60.07513        36.13032        -0.16767
C         58.85647        35.39648        -0.12285
C         60.07939        37.49221        -0.35068
C         58.86942        38.22002        -0.53468
C         60.06919        40.41397        -0.58777
C         58.87144        39.65357        -0.67123
C         60.05404        41.78270        -0.72285
C         58.84196        42.49712        -0.93634
C         60.04426        44.68758        -1.09523
C         58.83957        43.93826        -1.07688
C         60.03103        46.06241        -1.22351
C         58.80924        46.76354        -1.36882
C         58.79929        48.21141        -1.35928
O         41.99176        44.13673         0.94250
O         50.53939        48.96319         1.51864
O         33.40356        47.94818         2.31579
O         33.44545        23.27659         2.34720
O         41.00419        51.77472         3.63113
O         44.29142        29.88794        -2.70444
O         51.75289        23.33067         3.27226
O         46.36183        30.51131         0.55213
O         37.87127        19.63828         2.58336
O         45.63775        25.29103         1.80568
O         25.24829        36.73666        -2.45826
O         40.33189        32.30766        -3.11726
O         44.68729        48.94302        -1.32766
O         32.00957        30.85886        -2.70821
O         37.98948        36.69384        -2.93306
O         31.88200        35.76440        -3.05202
O         56.27828        47.54651        -2.84145
O         40.74907        26.63737        -2.05957
O         29.27400        30.86069         0.81994
O         52.29339        50.10076        -1.71281
O         28.51502        37.48325         0.67027
O         41.48006        47.78393        -1.45338
O         38.79024        43.66151         1.18977
O         28.13220        24.63569        -0.87073
O         54.66525        39.83802        -2.72306
O         42.28106        35.20577         0.29010
O         31.42616        25.60816        -1.48357
O         39.13143        46.42315        -1.62529
O         39.31028        35.36707         0.13049
O         48.42911        35.57800        -2.85909
O         25.54461        33.15253        -1.89709
O         32.04697        42.13380        -1.96223
O         28.10927        28.37034         1.68968
O         38.48509        27.49493         0.81417
O         34.08792        34.42507        -3.27742
O         43.94591        34.65152        -2.82913
O         25.37893        32.03616         1.58953
O         49.84866        28.83465        -1.81062
O         37.13386        28.60100        -2.54921
O         56.73769        31.87850         2.09244
O         26.75763        43.53617        -2.15984
H         26.79360        44.39915        -2.62255
O         40.60474        29.22105         0.50874
H         39.88719        28.83999         1.07015
O         58.62491        27.29721         3.66002
H         58.56623        28.26685         3.79754
O         30.55492        41.47201         1.33681
H         29.73778        41.03858         1.68396
O         50.14616        40.32487        -3.17109
H         50.99541        40.72096        -3.46339
O         53.06673        32.85976        -2.43638
H         52.29525        32.37916        -2.80758
O         53.66306        48.31862        -2.97145
H         53.35395        49.23585        -3.15022
O         44.10306        18.10906        -1.11404
H         43.29883        17.63742        -1.41902
O         27.52764        30.99350        -2.43078
H         26.77843        31.46947        -2.85154
O         42.77198        39.93840         1.17092
H         42.02792        40.47234         1.52458
O         26.57268        42.62510         1.38347
H         26.80084        41.76875         1.81224
O         33.57240        52.00218         3.39786
H         32.78687        51.41418         3.39186
O         37.65533        31.36886        -3.58358
H         37.59997        30.40878        -3.79127
O         27.93203        40.02399         1.44197
H         28.05074        39.05306         1.61318
O         40.19549        44.05958        -2.28360
H         39.56948        44.69115        -2.70359
O         41.32138        28.93579        -3.06874
H         42.12104        29.19806        -3.57444
O         36.70247        22.92955         2.67944
H         35.83041        22.73915         3.08890
O         43.01924        49.01232         2.61742
H         42.79748        49.60275         3.36952
O         37.84555        40.47262        -2.89128
H         37.84465        39.60292        -3.34686
O         38.27700        45.97800         1.95224
H         38.71013        45.13775         2.23821
H         22.10690        27.24603         1.90948
H         22.17593        29.71445         1.81420
H         22.15532        31.71889         1.67811
H         22.12502        34.03015         0.90808
H         21.90999        35.56834        -0.51467
H         21.93179        37.98207        -0.75779
H         21.99554        39.88973        -1.09998
H         22.05803        42.32677        -0.94979
H         22.06270        44.13698        -0.23803
H         22.12164        46.59651        -0.11838
H         25.18302        23.71698         1.12660
H         23.18357        25.08605         1.62386
H         25.54105        49.91123        -0.04992
H         23.39736        48.71795        -0.10179
H         26.94271        22.85893         1.68369
H         27.22418        50.82815        -0.03825
H         29.04771        21.66236         1.78518
H         29.32889        51.96018         0.38733
H         32.81896        19.38784         1.49058
H         30.69713        20.56391         1.35378
H         33.12649        53.95531         1.18427
H         31.13262        52.85279         0.29712
H         34.42521        18.44392         0.85287
H         34.52410        54.63275         2.72408
H         36.49021        17.17128         0.79460
H         36.65198        55.77864         3.13715
H         40.36868        14.97162         1.13989
H         38.20674        16.17904         1.22518
H         40.48099        57.80816         3.69534
H         38.31782        56.70537         3.29701
H         42.82245        14.99919         1.22608
H         42.92670        57.76212         3.73918
H         44.93967        16.14556         0.84028
H         45.04025        56.60714         3.28560
H         48.61477        18.42860         1.37731
H         46.57210        17.17826         0.97394
H         48.70656        54.69418         2.15293
H         46.64540        55.75060         2.85449
H         50.17966        19.41437         1.82368
H         50.28424        53.90643         1.43693
H         52.14469        20.68896         2.47664
H         52.34157        52.86009         0.61838
H         55.99195        22.85782         2.05095
H         53.89351        21.71034         2.48211
H         56.09904        50.47507        -0.06696
H         54.09363        51.56654         0.79111
H         57.64132        23.79019         1.72615
H         57.68583        50.01799        -1.23494
H         59.68637        25.05623         2.12335
H         60.92084        27.17565         1.83506
H         60.94853        29.50230         1.11856
H         60.99456        31.36937         0.73395
H         61.00952        33.71663         0.19114
H         61.03372        35.61489        -0.02484
H         61.04293        38.01792        -0.35204
H         61.03068        39.91464        -0.41190
H         61.00534        42.32502        -0.64872
H         61.01246        44.17907        -1.00210
H         60.97492        46.62595        -1.21288
H         59.76515        48.72722        -1.25292
