         477
 CSIRO Nanostructure Databank - Neutral Graphene Oxide Data Set
C         27.96857        27.28463        -0.35944
C         27.86975        28.73349        -0.63389
C         26.67672        29.49461        -0.22291
C         27.81781        31.71221        -0.37057
C         26.64832        30.84178        -0.11749
C         27.84905        33.11436         0.15891
C         26.59655        33.80094         0.45725
C         27.77945        35.93600         0.85682
C         26.55027        35.12167         0.73351
C         27.76055        37.41680         0.54318
C         26.51597        38.12060         0.15562
C         27.78966        40.12639        -0.52533
C         26.52631        39.38668        -0.29654
C         27.81487        41.62713        -0.79562
C         26.58141        42.43313        -0.75036
C         27.76482        44.56844        -0.44318
C         26.57920        43.79938        -0.59189
C         27.77814        45.98943        -0.43315
C         30.42595        27.34633        -0.70794
C         29.13857        26.63430        -0.52035
C         30.44124        28.79845        -0.45962
C         29.18332        29.50944        -0.73354
C         30.39253        31.65151        -0.14043
C         29.15046        30.99356        -0.57741
C         30.32086        33.13393        -0.11444
C         29.03310        33.79775         0.22504
C         30.30736        35.99917         0.50805
C         29.09888        35.16227         0.90760
C         30.28009        37.37303         0.36817
C         29.04247        38.12051         0.26285
C         30.25498        40.27561         0.16362
C         29.03508        39.46278        -0.06779
C         30.32776        41.70339        -0.14039
C         29.11462        42.37664        -0.64189
C         30.26373        44.56670         0.06572
C         29.06407        43.87503        -0.48276
C         30.22946        46.09207         0.00313
C         28.94420        46.71734        -0.36454
C         32.88056        24.47788         0.09471
C         31.75522        25.12938        -0.28002
C         32.88459        27.35117         0.09443
C         31.75160        26.58731        -0.47960
C         32.79078        28.74253         0.26981
C         31.59119        29.47477        -0.05066
C         32.79993        31.66087         0.40243
C         31.55525        30.94398         0.08902
C         32.79899        33.07908         0.44432
C         31.60777        33.86979         0.15709
C         32.77387        35.99158         0.67777
C         31.57849        35.30751         0.50946
C         32.81183        37.43077         0.49893
C         31.56403        38.07838        -0.04441
C         32.81795        40.29225         0.18615
C         31.56911        39.53895         0.33351
C         32.77940        41.66274         0.15059
C         31.53111        42.39862         0.00907
C         32.72726        44.59304         0.15345
C         31.56059        43.85723         0.01327
C         32.73603        46.04323         0.03267
C         31.52838        46.75893        -0.21083
C         32.81994        48.65885        -1.00026
C         31.59607        48.06950        -0.71793
C         35.46280        23.05651         0.27125
C         35.37380        24.49182         0.45766
C         34.11182        25.19504         0.35806
C         35.27257        27.30779         0.98331
C         34.05620        26.59659         0.44464
C         35.22695        28.78222         0.77833
C         33.91598        29.47850         0.98221
C         35.31874        31.69371         0.64558
C         33.98552        30.95270         0.66024
C         35.24329        33.09781         1.20294
C         33.95114        33.81383         0.97087
C         35.22729        35.93184         0.86025
C         34.01465        35.27257         0.83297
C         35.16383        37.39504         1.24089
C         33.98337        38.11638         0.61364
C         35.27849        40.33294         0.67913
C         34.12696        39.52939         0.06825
C         35.26779        41.68318         0.62634
C         34.06667        42.40092         0.10556
C         35.26995        44.61758         0.50546
C         34.03503        43.89429         0.13264
C         35.22168        46.13902         0.55943
C         33.97707        46.72982        -0.06827
C         35.31944        48.58260        -1.02871
C         34.02526        48.00872        -0.65387
C         35.44608        49.27687        -2.20237
C         37.93513        23.09371         0.61736
C         36.64402        22.39117         0.27423
C         37.85046        24.56140         0.30049
C         36.58990        25.22441         0.48260
C         37.73689        27.37023         0.39714
C         36.56440        26.65393         0.55648
C         37.75168        28.84227         0.46855
C         36.46619        29.54625         0.72650
C         37.77064        31.63975         1.49540
C         36.41353        30.91262         1.38525
C         37.77707        33.18828         1.62024
C         36.51018        33.86673         1.12743
C         37.76633        35.93960         0.46575
C         36.49315        35.22283         0.91548
C         37.71791        37.45804         0.64608
C         36.43794        38.16193         0.95272
C         37.77608        40.31392         1.25041
C         36.41236        39.61154         1.40882
C         37.73804        41.80959         1.22486
C         36.36900        42.49771         1.28719
C         37.67400        44.67862         0.99035
C         36.42062        43.94446         0.81589
C         37.70244        46.05222         0.82064
C         36.54932        46.70517         0.01817
C         37.81898        48.76774        -0.75743
C         36.50820        48.26990        -0.14489
C         37.88540        49.41992        -2.05935
C         36.70786        49.69414        -2.72727
C         40.41549        20.32231        -0.05316
C         39.33035        21.01632         0.34195
C         40.17535        23.14360        -0.55594
C         39.16506        22.42815         0.04489
C         40.21711        24.60285        -0.46568
C         39.00086        25.27832        -0.01250
C         40.15783        27.45479        -0.00508
C         38.97546        26.71243         0.09255
C         40.19222        28.83429         0.41723
C         39.03579        29.51156         0.72502
C         40.35053        31.65784         1.09138
C         39.06073        30.91268         1.20897
C         40.33135        33.13059         1.48708
C         39.04507        33.76943         0.93156
C         40.23327        35.98618         0.90212
C         39.06147        35.29196         0.92391
C         40.28035        37.44277         0.44941
C         38.99675        38.20940         0.71549
C         40.22146        40.37272         0.50637
C         38.99102        39.56881         0.80116
C         40.21843        41.86946         0.66079
C         38.96041        42.60462         0.94980
C         40.21791        44.71095         1.43129
C         38.93887        43.96200         1.10084
C         40.20527        46.18647         1.03904
C         38.95320        46.73465         1.08812
C         40.32692        48.96797        -0.40628
C         38.95411        48.58313        -0.03524
C         40.36038        49.81415        -1.66486
C         39.19280        49.80406        -2.58019
C         40.70654        50.37708        -4.44814
C         39.41374        50.07974        -3.91609
C         42.76573        20.35501        -0.91817
C         41.36799        20.88815        -1.06976
C         42.59090        23.21779        -1.45241
C         41.33124        22.42551        -1.16091
C         42.57959        24.75718        -1.46285
C         41.34371        25.33526        -0.78040
C         42.65572        27.53698        -0.60478
C         41.34125        26.80259        -0.59766
C         42.73546        28.82485         0.17137
C         41.49302        29.50898         0.62936
C         42.82512        31.67162         1.00851
C         41.50672        30.98035         0.86058
C         42.84610        33.16503         1.14143
C         41.56978        33.90537         1.09289
C         42.75410        36.05701         1.00231
C         41.53215        35.29238         1.00377
C         42.74857        37.46438         1.04600
C         41.44105        38.22605         1.09144
C         42.71105        40.44351         1.02678
C         41.56739        39.63124         0.44173
C         42.72904        41.81953         1.04504
C         41.49929        42.60248         0.87521
C         42.72992        44.71361         1.33123
C         41.48014        43.95482         1.09209
C         42.72726        46.22887         1.27544
C         41.44331        47.10987         1.16443
C         42.78076        48.76073        -0.32165
C         41.55610        48.26190         0.08126
C         42.92044        49.79443        -1.40026
C         41.70420        50.18211        -2.21134
C         43.16044        50.66112        -4.19005
C         41.83798        50.42228        -3.66255
C         43.88537        21.09437        -1.13126
C         45.10390        23.24456        -1.34506
C         43.88993        22.51406        -1.35998
C         45.11394        24.68417        -1.17012
C         43.89347        25.39798        -1.02887
C         45.16332        27.46825        -0.65892
C         43.92527        26.77490        -0.77129
C         45.17395        28.95028        -0.54371
C         43.93139        29.66238        -0.12570
C         45.09380        31.86665        -0.23955
C         44.13874        30.98096         0.61011
C         45.19108        33.28899         0.30653
C         44.10386        33.90455         0.84283
C         45.26370        36.16143         0.96560
C         44.05688        35.34131         1.32584
C         45.20506        37.53996         1.02892
C         43.94394        38.20206         1.17444
C         45.19792        40.39823         1.52651
C         43.88114        39.65788         1.57275
C         45.15093        41.82883         1.61132
C         43.97132        42.54746         1.33990
C         45.23817        44.69271         1.25750
C         44.00697        43.97008         1.26112
C         45.29019        46.11256         1.09523
C         44.05387        46.90745         1.07400
C         45.35738        48.63987        -0.26879
C         44.06412        48.25705         0.25354
C         45.52452        49.62789        -1.33486
C         44.26736        50.11544        -2.01867
C         44.28230        50.54846        -3.43187
C         47.55396        23.26134        -1.40929
C         46.35796        22.57504        -1.43367
C         47.60297        24.66621        -1.24412
C         46.36047        25.37723        -1.05156
C         47.67012        27.45824        -0.43139
C         46.36498        26.77700        -0.79053
C         47.65378        28.98471        -0.50366
C         46.44924        29.70169        -0.41447
C         47.65357        31.81823        -0.37139
C         46.43243        31.12177        -0.33837
C         47.72029        33.34594        -0.48299
C         46.40654        34.07327        -0.05940
C         47.79292        36.16831         0.63890
C         46.46553        35.49444         0.41059
C         47.67767        37.56332         1.17040
C         46.45732        38.37508         0.79086
C         47.63193        40.35560         2.03363
C         46.39052        39.69628         1.54624
C         47.68826        41.84360         2.02239
C         46.39820        42.58503         1.83102
C         47.72201        44.61394         1.31611
C         46.46839        43.98950         1.41625
C         47.76399        46.01938         1.02620
C         46.55056        46.75075         0.94418
C         47.88796        48.75836         0.05924
C         46.55736        48.15100         0.44031
C         47.96627        49.51973        -1.21059
C         46.86887        49.80393        -1.93086
C         50.05077        24.78259        -1.68830
C         48.84902        25.37824        -1.33717
C         50.17606        27.49068        -0.86316
C         48.81987        26.89341        -1.29477
C         50.10320        28.98741        -1.04038
C         48.86625        29.70185        -0.60073
C         50.15320        31.88446        -0.80832
C         48.86657        31.10962        -0.54063
C         50.21885        33.21282        -0.07645
C         48.94282        33.81133         0.46331
C         50.40193        35.79761         1.09931
C         49.04678        35.32615         0.63796
C         50.54869        37.04816         1.78347
C         48.64253        38.13065         1.92295
C         50.24841        40.16925         1.88260
C         48.89769        39.56937         2.12582
C         50.25287        41.69193         2.08728
C         48.97594        42.48100         1.70309
C         50.22275        44.51802         1.08741
C         48.95560        43.82970         1.42379
C         50.27036        45.99055         1.05590
C         49.05367        46.69103         0.87128
C         50.35756        48.70359         0.38367
C         49.12105        48.03789         0.45495
C         51.25884        25.52110        -1.87354
C         52.62835        27.59826        -1.59720
C         51.37192        26.85816        -1.55217
C         52.66190        28.97463        -1.28588
C         51.39167        29.72113        -1.13709
C         52.69050        31.83006        -0.64710
C         51.39986        31.06626        -0.45344
C         52.66956        33.18201        -0.40373
C         51.42788        33.87140        -0.04717
C         52.80255        35.85920         0.76225
C         51.51435        35.18853         0.56146
C         52.82443        37.32549         1.21415
C         51.55464        37.98531         1.55806
C         52.70754        40.16982         1.43526
C         51.45498        39.45105         1.67181
C         52.67650        41.60715         1.40985
C         51.50636        42.32682         1.56297
C         52.75891        44.52605         1.34106
C         51.50556        43.75381         1.16440
C         52.75641        45.95305         1.26359
C         51.52404        46.66562         1.01979
C         51.53011        48.05436         0.72700
C         55.04441        27.64493        -1.94735
C         53.85874        26.94925        -1.92118
C         55.08964        29.03569        -1.63890
C         53.87861        29.71391        -1.29930
C         55.15572        31.79702        -0.99990
C         53.91660        31.11983        -0.98304
C         55.22790        33.18215        -0.38334
C         53.92838        33.95327        -0.50649
C         55.27149        36.03898         0.22972
C         53.98070        35.36508         0.00863
C         55.26252        37.40577         0.66756
C         54.04153        38.09710         0.96887
C         55.20798        40.22008         1.00252
C         53.97099        39.50377         1.13479
C         55.21077        41.68389         0.85480
C         53.90192        42.38276         1.06538
C         55.22425        44.48260         1.82340
C         53.94154        43.81459         1.41160
C         55.20085        45.95035         1.50186
C         54.03557        46.61804         1.29005
C         56.30802        29.75718        -1.67329
C         56.33559        31.10268        -1.34713
C         56.40553        34.06474        -0.70365
C         56.42328        35.37641        -0.30615
C         56.47018        38.14977         0.74748
C         56.42749        39.52087         0.92056
C         56.46133        42.48519         0.96330
C         56.45976        43.77151         1.33431
O         30.08772        45.34186         1.27683
O         42.93874        32.28390         2.35105
O         48.65822        36.08986        -0.54760
O         37.78926        35.73824        -0.99477
O         41.67907        22.78199        -2.54434
O         47.16253        49.27041         1.21873
O         42.31125        51.12372        -1.27940
O         38.83375        48.11633         1.28082
O         28.46787        29.07062        -1.92403
O         31.28844        26.95077        -1.82084
O         54.39605        42.11545        -0.30696
O         34.27928        43.14247        -1.14710
O         53.81272        35.06388        -1.43401
O         46.98838        42.40456         3.19089
O         27.71308        36.91847         1.94591
O         44.96962        50.99580        -1.07543
O         42.70774        45.54432         2.57664
O         48.01491        33.64773        -1.79455
O         49.49834        37.31226         2.64795
O         42.36854        28.75103         1.57344
O         28.45224        31.64149        -1.68438
O         44.08320        48.19327         1.73678
O         50.55321        29.51616        -2.32624
O         31.06311        33.72828        -1.23647
O         44.27150        29.59673        -1.52515
O         38.51603        31.03491         2.60178
O         50.84825        43.95877        -0.14852
O         41.81600        27.58728        -1.78328
O         40.07824        41.22798        -0.68452
O         40.23899        50.44618        -0.35641
O         34.37845        33.32171         2.33036
O         30.81118        39.92011         1.50420
O         37.04239        29.54206        -0.67513
O         48.16720        39.93494         3.37603
O         27.87960        40.65615        -1.90164
O         38.05389        41.07861         2.47817
O         46.12655        35.16917        -0.98972
O         53.12267        36.18616         2.13928
O         29.36807        43.26224        -1.78908
O         38.99575        33.34553        -0.45260
H         38.44844        33.99402        -0.95940
O         47.85486        27.09896         0.96138
H         48.72140        27.47007         1.25539
O         44.52268        32.05608        -1.54952
H         45.19959        32.47931        -2.11997
O         36.73683        46.22931        -1.33383
H         36.55761        45.26422        -1.35765
O         44.05965        35.23594         2.79937
H         43.94836        36.14027         3.16429
O         29.32139        34.83424         2.31297
H         29.03608        35.62373         2.82867
O         48.69524        33.25378         1.77046
H         49.06908        32.34720         1.80838
O         40.46602        37.36711        -0.97958
H         39.72714        36.82996        -1.34473
O         55.28553        44.38499         3.30011
H         54.55270        44.92824         3.66124
O         55.31398        32.91422         1.06748
H         56.14784        32.42515         1.23206
O         50.20151        32.22369        -2.20226
H         49.39237        32.79876        -2.36385
O         35.21275        27.13125         2.46062
H         34.48407        27.72995         2.76972
O         48.54422        27.34334        -2.63770
H         49.34808        27.21998        -3.18458
O         35.94184        30.72723         2.73923
H         36.73493        30.69226         3.32351
O         38.07183        22.99681         2.08013
H         37.30437        23.46249         2.47613
O         31.61373        38.05198        -1.49753
H         31.74884        37.12415        -1.78438
O         36.26650        48.89276         1.12076
H         37.10340        48.86833         1.63806
O         35.11263        46.46024         1.96966
H         35.97007        46.25205         2.39868
O         40.34935        33.17692         2.94054
H         41.22103        32.80064         3.21644
O         50.41924        27.26747         0.56021
H         50.54984        26.30372         0.69035
O         34.92932        37.32180         2.67086
H         35.10600        38.20995         3.06651
O         50.27869        41.86155         3.55146
H         49.50597        41.35288         3.90358
O         46.50819        38.73071        -0.61597
H         46.64680        37.90442        -1.12935
O         34.42917        39.37203        -1.34633
H         34.38993        40.25693        -1.76741
O         41.08964        38.40886         2.47947
H         41.87600        38.79091         2.94494
O         43.58763        39.58552         3.03914
H         43.79557        40.46311         3.43022
O         44.84492        30.64724         1.82118
H         44.48341        31.21776         2.54037
O         33.58175        29.39048         2.43664
H         34.24326        29.97456         2.89179
O         41.33822        47.79868         2.41891
H         42.20108        48.24552         2.58403
O         35.98935        42.55795         2.69641
H         36.75626        42.90791         3.20003
O         36.86095        38.04687        -0.43170
H         37.14530        36.38664        -1.37291
O         36.06087        39.66047         2.80706
H         36.13454        40.60790         3.09071
O         40.18669        44.73133         2.89891
H         41.00268        45.21464         3.18998
O         42.48288        25.15947        -2.85520
H         41.83134        24.55729        -3.28194
O         35.71327        31.89645        -0.73261
H         36.04185        31.04521        -1.10816
O         51.28968        30.79461         0.97989
H         52.12855        30.38818         1.28376
O         37.76382        33.51441         3.01793
H         38.56389        33.10147         3.42557
O         41.94320        39.45105        -0.93654
H         41.49011        40.15412        -1.45637
O         40.89455        20.36470        -2.34966
H         41.23730        20.98283        -3.03731
H         27.04972        26.73046        -0.11450
H         25.78684        28.91549         0.06877
H         25.72894        31.30981         0.26308
H         25.65518        33.23977         0.38675
H         25.58291        35.61181         0.91118
H         25.55759        37.60266         0.30235
H         25.58200        39.87379        -0.57809
H         25.62612        41.91581        -0.91382
H         25.61610        44.33143        -0.59896
H         26.82233        46.51767        -0.56921
H         29.15934        25.53996        -0.42061
H         28.89763        47.80920        -0.48036
H         32.86054        23.38292         0.17392
H         30.86053        24.55426        -0.55461
H         32.85064        49.66819        -1.43252
H         30.67269        48.62685        -0.92530
H         34.54227        22.48524         0.08676
H         34.55039        49.47578        -2.80959
H         36.65733        21.30175         0.12275
H         36.72284        50.23324        -3.68428
H         40.55011        19.27226         0.24519
H         38.59214        20.55259         1.01216
H         40.79692        50.54794        -5.53057
H         38.57182        50.04082        -4.62129
H         42.86583        19.27581        -0.72827
H         43.24660        50.95720        -5.24608
H         44.85312        20.58118        -1.04281
H         45.25530        50.80085        -3.87618
H         48.48471        22.69204        -1.53529
H         46.39004        21.48896        -1.58765
H         48.96484        49.70883        -1.63229
H         46.95714        50.32743        -2.89294
H         50.10195        23.69932        -1.86756
H         50.38499        49.76290         0.09361
H         52.12288        24.97155        -2.27329
H         52.47136        48.61766         0.71136
H         55.97963        27.12959        -2.20965
H         53.86374        25.87692        -2.15941
H         56.15245        46.50146         1.53312
H         54.07893        47.70297         1.12185
H         57.23699        29.23474        -1.94224
H         57.29808        31.63382        -1.35327
H         57.31733        33.62810        -1.13654
H         57.35549        35.94661        -0.43396
H         57.43971        37.65166         0.61907
H         57.37188        40.08061         0.91629
H         57.40757        42.01823         0.65126
H         57.40585        44.33323         1.36879
