         640
 CSIRO Nanostructure Databank - Neutral Graphene Oxide Data Set
C         23.13522        27.40757        -1.10999
C         23.11778        28.77938        -1.00891
C         23.11278        31.70268        -0.86225
C         23.11434        33.07649        -0.81821
C         23.07440        35.99102        -0.66015
C         23.06803        37.36386        -0.61829
C         23.03878        40.27797        -0.51696
C         23.02675        41.65027        -0.49573
C         23.00990        44.57524        -0.46270
C         23.01305        45.94758        -0.46822
C         25.51009        24.54779        -0.85177
C         24.34685        25.25665        -1.03533
C         25.50527        27.34686        -0.44907
C         24.32468        26.66814        -0.85616
C         25.47874        28.78586        -0.34395
C         24.28541        29.50730        -0.64113
C         25.45944        31.64737        -0.18313
C         24.28294        30.94889        -0.55554
C         25.46468        33.09162        -0.11754
C         24.27621        33.81028        -0.45307
C         25.45163        35.95993        -0.09349
C         24.26238        35.24909        -0.40130
C         25.45555        37.39453        -0.06748
C         24.24769        38.10495        -0.32786
C         25.44215        40.25836        -0.04751
C         24.23824        39.54187        -0.29695
C         25.43091        41.69060        -0.04279
C         24.21708        42.39736        -0.26261
C         25.42545        44.53986        -0.00860
C         24.21112        43.83436        -0.25155
C         25.43273        45.97746        -0.04603
C         24.22625        46.67323        -0.28734
C         25.40749        48.79814        -0.29372
C         24.23348        48.09734        -0.38290
C         28.03302        23.08449        -0.49388
C         27.92636        24.44322        -0.24946
C         26.71270        25.19315        -0.44216
C         27.91853        27.28910         0.15603
C         26.70621        26.60214        -0.21526
C         27.83799        28.73695         0.55564
C         26.65046        29.49322         0.02132
C         27.87018        31.58571         0.43862
C         26.65480        30.90161         0.09606
C         27.81680        33.04022         0.82914
C         26.63337        33.80425         0.26069
C         27.84091        35.96922         0.48769
C         26.65007        35.22711         0.22066
C         27.87723        37.38747         0.46070
C         26.65962        38.12215         0.20631
C         27.87945        40.28317         0.41006
C         26.66259        39.54349         0.19573
C         27.87167        41.69315         0.42896
C         26.64012        42.42023         0.21511
C         27.83690        44.58589         0.75090
C         26.62918        43.82535         0.24524
C         27.88725        46.02795         0.31242
C         26.66660        46.71159         0.07319
C         27.88783        48.85084         0.00066
C         26.65382        48.13053        -0.08318
C         27.92223        50.29590        -0.06708
C         30.43929        23.00375        -0.00914
C         29.23962        22.36542        -0.28086
C         30.43221        24.52295        -0.06928
C         29.10773        25.11491         0.42064
C         30.38002        27.32552         0.45462
C         29.12693        26.62168         0.30956
C         30.36633        28.77451         0.41277
C         29.13335        29.48029         0.39625
C         30.35041        31.61532         0.89321
C         29.08502        30.89319         0.49301
C         30.32010        33.09163         0.58732
C         29.12292        33.75478         0.59399
C         30.38092        35.95775         0.73838
C         29.07830        35.21988         0.75968
C         30.36724        37.42633         0.59812
C         29.10357        38.10999         0.60869
C         30.33177        40.23362         0.69527
C         29.12477        39.54951         0.56279
C         30.33209        41.68656         0.83787
C         29.09380        42.44043         0.60621
C         30.37729        44.55808         0.49662
C         29.13426        43.83494         0.57292
C         30.37906        45.99729         0.38878
C         29.11138        46.72578         0.31798
C         30.34853        48.91232         0.28842
C         29.09393        48.14370         0.16722
C         30.36549        50.36029        -0.04510
C         29.08509        51.01084        -0.07885
C         32.88681        20.19828         0.41690
C         31.70519        20.87858         0.24894
C         32.90687        23.00382         0.39695
C         31.67958        22.29898         0.19072
C         32.92324        24.49586         0.14575
C         31.62560        25.13308         0.69265
C         32.85357        27.33821         0.57601
C         31.61721        26.64418         0.55785
C         32.85323        28.77813         0.39004
C         31.59288        29.48530         0.34670
C         32.76002        31.62954         0.16752
C         31.59774        30.91856         0.40980
C         32.79173        33.07203         0.24409
C         31.58543        33.79351         0.47056
C         32.81809        35.90691         0.29175
C         31.61654        35.20596         0.46739
C         32.76951        37.38222        -0.01265
C         31.57042        38.09175         0.54324
C         32.86296        40.26043         0.40479
C         31.64479        39.53026         0.94939
C         32.87508        41.65314         0.38478
C         31.66187        42.42785         0.72996
C         32.84321        44.55140         0.23730
C         31.61466        43.86857         0.44198
C         32.84761        45.97859         0.15081
C         31.60088        46.67349         0.25853
C         32.88483        48.84099        -0.07141
C         31.64412        48.14699         0.30980
C         32.82171        50.25654        -0.58115
C         31.57144        51.02638        -0.21406
C         32.84988        53.11570        -0.32279
C         31.65714        52.45784        -0.23670
C         35.40569        18.78231         0.45546
C         35.35426        20.17421         0.66452
C         34.12306        20.88909         0.59848
C         35.33966        23.05927         1.09906
C         34.09894        22.31869         0.62959
C         35.35434        24.53100         0.77556
C         34.15636        25.21612         0.63138
C         35.34441        27.35873         0.70475
C         34.11275        26.64708         0.63976
C         35.30632        28.86772         0.85793
C         34.04517        29.47900         0.28401
C         35.24973        31.66547        -0.17897
C         33.98129        30.86685        -0.30211
C         35.23722        33.02923        -0.11337
C         34.01442        33.78237         0.10440
C         35.27471        35.96436         0.17327
C         34.03882        35.20474         0.19382
C         35.28682        37.35340         0.09109
C         34.07254        38.11820         0.14602
C         35.31193        40.25261        -0.27573
C         34.06111        39.51040         0.14765
C         35.31684        41.70956         0.07096
C         34.09800        42.39656         0.18066
C         35.30967        44.54152         0.12751
C         34.08302        43.83220         0.20160
C         35.31177        45.97334         0.00278
C         34.07557        46.68460         0.00570
C         35.30745        48.84256        -0.37423
C         34.07743        48.13276        -0.15267
C         35.33365        50.25357        -0.43357
C         34.11791        51.00841        -0.41504
C         35.34418        53.14869        -0.45289
C         34.11819        52.42219        -0.40296
C         35.40817        54.55464        -0.43718
C         37.85225        18.79805         0.26419
C         36.60323        18.10515         0.32518
C         37.87852        20.19071         0.48689
C         36.64557        20.87117         1.02142
C         37.82738        23.06107         0.65851
C         36.63233        22.35413         0.77173
C         37.81577        24.50589         0.73325
C         36.60494        25.23246         0.80009
C         37.80641        27.41167         0.50852
C         36.57068        26.67939         0.74543
C         37.79913        28.73673         0.17084
C         36.59596        29.56016         0.39822
C         37.73619        31.58609        -0.82083
C         36.55828        30.96310        -0.11450
C         37.73389        33.12807        -0.70263
C         36.54165        33.73539        -0.01749
C         37.81615        35.94285         0.11894
C         36.54780        35.21473         0.23495
C         37.76810        37.38010         0.52032
C         36.60203        38.06377        -0.19002
C         37.77531        40.22972         0.24262
C         36.59038        39.54618         0.08016
C         37.79037        41.68445         0.21582
C         36.55496        42.40115         0.14299
C         37.78060        44.54070         0.16549
C         36.54872        43.83219         0.15515
C         37.77373        45.97108         0.04006
C         36.55022        46.65944        -0.11370
C         37.81082        48.83613        -0.16572
C         36.58109        48.08269        -0.61049
C         37.78601        50.25781        -0.19620
C         36.59860        50.94865        -0.42523
C         37.88055        53.15230        -0.40941
C         36.61706        52.40982        -0.78735
C         37.87190        54.56980        -0.45815
C         36.61508        55.24151        -0.50387
C         40.25274        16.02129        -0.55739
C         39.07647        16.69542        -0.32312
C         40.29766        18.81062        -0.04935
C         39.06671        18.09134        -0.04677
C         40.31406        20.22509         0.14928
C         39.09010        20.93254         0.38278
C         40.33933        23.06877         0.40460
C         39.09663        22.35766         0.50667
C         40.36378        24.49340         0.45717
C         39.11142        25.20848         0.76767
C         40.34560        27.38631         0.15568
C         39.10789        26.71347         0.60963
C         40.30970        28.72205        -0.24610
C         38.96042        29.30481        -0.59909
C         40.18534        31.29939        -1.26236
C         38.98969        30.79667        -0.80189
C         40.17403        33.45401        -1.16847
C         38.97413        33.93066        -0.65735
C         40.27316        35.97186        -0.09951
C         39.00509        35.27254        -0.13701
C         40.27764        37.37713         0.15293
C         39.06879        38.10484         0.30429
C         40.28194        40.22500         0.35381
C         39.05397        39.51068         0.32530
C         40.27081        41.68038         0.34317
C         39.01423        42.39036         0.26082
C         40.24352        44.54347         0.23804
C         39.01193        43.82364         0.22797
C         40.24318        45.97287         0.17979
C         39.01859        46.69117         0.06314
C         40.27020        48.84588         0.12295
C         39.01548        48.12701         0.03103
C         40.29533        50.25010         0.08167
C         39.01286        51.01363         0.26082
C         40.31791        53.12572        -0.20004
C         39.08085        52.45014        -0.19682
C         40.34381        54.55792        -0.31818
C         39.11956        55.29150        -0.37045
C         40.38145        57.37790        -0.31594
C         39.17459        56.71048        -0.37164
C         42.72164        16.01425        -0.70173
C         41.50052        16.70459        -0.51203
C         42.76728        18.80067        -0.18376
C         41.52002        18.10732        -0.26297
C         42.77040        20.20062         0.06446
C         41.56214        20.92177         0.16707
C         42.80904        23.07597         0.16611
C         41.57549        22.36135         0.27248
C         42.79866        24.50597         0.10806
C         41.56589        25.21794         0.27055
C         42.78225        27.36361        -0.11006
C         41.57381        26.66123         0.15093
C         42.77559        28.77809        -0.34560
C         41.52577        29.43690        -0.49276
C         42.68528        31.59922        -0.98949
C         41.50011        30.80486        -0.91480
C         42.66008        33.12257        -1.13467
C         41.44825        33.93947        -0.80793
C         42.76292        35.96691        -0.22183
C         41.49613        35.27930        -0.35917
C         42.74778        37.37045         0.07967
C         41.52370        38.08160         0.18218
C         42.76119        40.18989         0.43726
C         41.51130        39.50364         0.34633
C         42.75378        41.67255         0.71659
C         41.46871        42.39096         0.37829
C         42.69989        44.54648         0.24653
C         41.48020        43.82632         0.29391
C         42.71467        45.95961         0.24587
C         41.48544        46.68287         0.22006
C         42.73837        48.80301         0.21040
C         41.50002        48.10941         0.18497
C         42.75070        50.24279         0.16689
C         41.52439        50.96131         0.08003
C         42.79531        53.06638        -0.02966
C         41.56012        52.39393        -0.03706
C         42.87451        54.50017        -0.47530
C         41.58108        55.25515        -0.29900
C         42.87222        57.35075        -0.19916
C         41.60429        56.65778        -0.28850
C         43.92963        16.68909        -0.63207
C         45.25256        18.79479        -0.33033
C         43.98668        18.07466        -0.36950
C         45.27654        20.15185        -0.10248
C         44.06279        20.88958         0.39954
C         45.26435        23.05970        -0.06338
C         44.05592        22.37161         0.10168
C         45.25217        24.50302        -0.17912
C         44.01879        25.22470        -0.08114
C         45.23368        27.38244        -0.35308
C         44.02009        26.64968        -0.17815
C         45.24020        28.80868        -0.51155
C         43.97950        29.52550        -0.56460
C         45.23924        31.61677        -1.20282
C         43.93137        30.92853        -0.81330
C         45.26632        33.14015        -1.01355
C         43.96293        33.89120        -0.96649
C         45.21887        35.92985        -0.06429
C         43.97220        35.27892        -0.42207
C         45.18866        37.33447         0.27158
C         43.99225        38.06142         0.24620
C         45.24320        40.22578         0.42169
C         43.97422        39.50309         0.40174
C         45.25657        41.63032         0.29854
C         43.97168        42.33554         0.12276
C         45.24638        44.54062         0.14852
C         43.96690        43.82481         0.01994
C         45.23109        45.94165         0.22058
C         43.96711        46.67041         0.22435
C         45.24345        48.82783         0.05729
C         43.95877        48.06491         0.23199
C         45.17602        50.20632         0.65950
C         43.96023        50.96652         0.31516
C         45.26780        53.08186         0.43425
C         44.00045        52.36760         0.24378
C         45.27128        54.53954         0.30118
C         44.10554        55.23722         0.01080
C         44.04678        56.67758        -0.02544
C         47.68507        18.70494        -0.68460
C         46.50741        18.06898        -0.53764
C         47.71912        20.18423        -0.69786
C         46.59680        20.85730         0.08125
C         47.72046        23.05024        -0.23776
C         46.52937        22.35499        -0.13512
C         47.71433        24.50448        -0.26943
C         46.45678        25.22139        -0.30632
C         47.68854        27.37038        -0.41082
C         46.46539        26.65400        -0.36784
C         47.70543        28.77161        -0.46461
C         46.47926        29.50855        -0.57803
C         47.71351        31.65361        -0.55412
C         46.50696        30.94861        -0.66979
C         47.77287        33.07896        -0.41991
C         46.51168        33.84601        -0.57556
C         47.70590        35.84583         0.47833
C         46.43279        35.21739        -0.05617
C         47.67832        37.34154         0.10459
C         46.45720        38.03290         0.71554
C         47.69458        40.21143         0.46330
C         46.47154        39.52197         0.46084
C         47.70053        41.64609         0.40927
C         46.46591        42.35714         0.28183
C         47.69407        44.50142         0.34067
C         46.46406        43.80069         0.23944
C         47.69460        45.92910         0.36256
C         46.47098        46.65027         0.31456
C         47.68956        48.76711         0.56059
C         46.49337        48.07379         0.41279
C         47.76586        50.19779         1.06975
C         46.43112        50.94454         0.98817
C         47.73417        53.10015         1.09370
C         46.42037        52.41061         0.79491
C         47.68561        54.57222         0.79651
C         46.54017        55.22105         0.50505
C         50.31798        20.27777        -0.92900
C         48.99351        20.94573        -0.88524
C         50.17773        23.05321        -0.45178
C         48.99656        22.37206        -0.47294
C         50.15475        24.45364        -0.00420
C         48.90183        25.19379        -0.21185
C         50.18731        27.35843         0.00737
C         48.99136        26.64089        -0.57437
C         50.12703        28.79281         0.01320
C         48.97082        29.46472        -0.34647
C         50.26270        31.64618        -0.30597
C         49.02171        30.90863        -0.75258
C         50.29307        33.11665        -0.62059
C         48.97418        33.79141        -0.28129
C         50.18919        35.91305         0.09090
C         48.98490        35.18921        -0.01154
C         50.18934        37.35161         0.31393
C         48.97515        38.06612         0.37352
C         50.18440        40.17614         0.58722
C         48.96008        39.47584         0.48876
C         50.16082        41.63659         0.79081
C         48.91536        42.37394         0.52010
C         50.17176        44.51699         0.41128
C         48.93277        43.78493         0.45098
C         50.16160        45.93747         0.30468
C         48.92461        46.64923         0.36876
C         50.14285        48.79814         0.24373
C         48.92813        48.06657         0.43391
C         50.11654        50.23956         0.15848
C         48.93447        50.96013         0.49115
C         50.05902        53.04055        -0.00132
C         48.91598        52.35854         0.46873
C         51.46318        20.97854        -0.89697
C         52.72598        23.20572        -0.61498
C         51.45157        22.48345        -1.04035
C         52.69888        24.52904        -0.13424
C         51.41889        25.19981         0.18007
C         52.62102        27.34000         0.51604
C         51.37868        26.68100         0.20294
C         52.59772        28.80084         0.75008
C         51.32406        29.54788         0.44487
C         52.66063        31.67598         0.29419
C         51.38457        30.99274         0.12450
C         52.69236        33.09259         0.19635
C         51.49290        33.82453        -0.05226
C         52.68791        35.93773         0.31357
C         51.45988        35.21534         0.08932
C         52.67424        37.36481         0.36390
C         51.42557        38.06804         0.39457
C         52.67312        40.21917         0.46550
C         51.42182        39.48979         0.51448
C         52.70499        41.63809         0.48728
C         51.46636        42.39843         0.75265
C         52.61404        44.53503         0.20191
C         51.42806        43.84280         0.43685
C         52.59980        45.95040        -0.01768
C         51.36998        46.66282         0.12221
C         52.55661        48.80097        -0.29653
C         51.35349        48.09092         0.02593
C         52.52581        50.21360        -0.46805
C         51.28982        50.94409        -0.23294
C         51.21244        52.35156        -0.34640
C         55.15934        23.33536        -0.66243
C         53.97903        22.62856        -0.88164
C         55.14039        24.66101        -0.19175
C         53.88788        25.26345         0.09261
C         55.04924        27.31750         1.10664
C         53.81606        26.64545         0.53911
C         55.08312        28.82139         0.80558
C         53.88724        29.52556         0.67156
C         55.11016        31.65958         0.59595
C         53.86906        30.95200         0.51637
C         55.11249        33.07529         0.59938
C         53.92043        33.79628         0.42303
C         55.15179        35.95894         0.49545
C         53.91681        35.24102         0.42434
C         55.14496        37.38428         0.39274
C         53.90204        38.08335         0.36925
C         55.13531        40.22667         0.21345
C         53.90453        39.51485         0.35164
C         55.12467        41.64379         0.10591
C         53.90191        42.33586         0.27502
C         55.02692        44.42943        -0.46754
C         53.94001        43.84146         0.40323
C         54.97924        45.90291        -0.74609
C         53.77888        46.66160        -0.35926
C         54.97481        48.76230        -0.88480
C         53.77541        48.07246        -0.50586
C         54.90309        50.15803        -1.05459
C         53.72052        50.86234        -0.85300
C         57.64988        24.88581        -0.42565
C         56.36875        25.41851         0.04112
C         57.59850        27.29953         1.06526
C         56.33431        26.62713         0.69187
C         57.59901        28.81264         1.03452
C         56.32276        29.53351         0.80507
C         57.61409        31.64989         0.65628
C         56.34375        30.93052         0.71141
C         57.63305        33.04585         0.63195
C         56.37316        33.79682         0.98516
C         57.61630        35.91343         0.52188
C         56.38960        35.24773         0.58293
C         57.62863        37.38758         0.57261
C         56.36879        38.11857         0.38153
C         57.62474        40.23445        -0.01483
C         56.38379        39.51552         0.21586
C         57.59225        41.64229        -0.27734
C         56.35758        42.36060        -0.17816
C         57.50495        44.45471        -0.82474
C         56.33186        43.73656        -0.45851
C         57.45579        45.88168        -1.05782
C         56.24349        46.62019        -0.96779
C         57.45457        48.69820        -1.32716
C         56.22679        48.02840        -1.06284
C         58.82825        25.40624        -0.04397
C         60.10792        27.38290         0.75158
C         58.90363        26.50784         0.98221
C         60.07492        28.73617         0.68348
C         58.86502        29.51425         0.76057
C         60.05664        31.64866         0.34293
C         58.85111        30.90815         0.57099
C         60.05620        33.01521         0.27449
C         58.85456        33.77107         0.44945
C         60.05325        35.93465         0.09671
C         58.85474        35.19805         0.42055
C         60.09467        37.28744        -0.03349
C         58.94319        38.12985         0.31984
C         60.02042        40.24658        -0.48845
C         58.86014        39.54848        -0.08864
C         59.98632        41.60127        -0.75911
C         58.78202        42.34090        -0.64460
C         59.92340        44.49885        -1.22814
C         58.74403        43.76231        -0.90229
C         59.88823        45.85807        -1.42777
C         58.66451        46.58314        -1.32956
C         58.63141        47.99494        -1.47664
O         54.63438        44.87849        -1.79205
O         43.84087        42.94430        -1.19039
O         48.06258        20.72043        -2.01732
O         39.26287        26.10413         1.93830
O         36.71344        34.21487         1.35094
O         40.14851        32.41645        -2.09602
O         50.83774        42.06750         2.03882
O         46.10984        33.77317        -2.03993
O         29.74891        35.59991         2.03168
O         33.03902        24.67302        -1.25514
O         31.05224        48.67589         1.57200
O         31.08303        42.11716         2.05725
O         57.55090        28.04840         2.32989
O         58.44676        37.90525         1.68275
O         36.92582        30.69826         1.30227
O         50.73259        24.62334         1.37022
O         51.71743        29.24976         1.83429
O         43.32747        33.71804        -2.29279
O         37.39670        32.43553        -1.94830
O         45.54118        50.40944         2.06185
O         59.09677        25.86442         2.27495
H         58.84584        26.53275         2.95174
O         31.82630        39.52056         2.41411
H         31.66916        40.45189         2.71234
O         50.42333        33.26200        -2.08017
H         49.90537        32.52180        -2.48524
O         32.68712        50.07671        -2.05990
H         33.55943        49.76981        -2.39308
O         54.94022        27.19823         2.55404
H         55.77694        27.56791         2.92634
O         31.58638        24.78726         2.08694
H         30.65594        24.88885         2.40488
O         49.14444        30.85636        -2.23928
H         48.32458        30.43820        -2.58365
O         33.80029        30.65512        -1.75863
H         33.76244        31.53852        -2.18344
O         36.74044        20.71990         2.51838
H         37.62634        21.05356         2.78101
O         46.51866        37.92225         2.17854
H         45.75117        38.40917         2.54702
O         38.84383        51.12238         1.72849
H         38.86002        50.21115         2.09201
O         43.05883        54.41607        -1.94476
H         43.09251        55.33743        -2.28063
O         38.69555        28.78845        -1.97342
H         39.31972        29.23106        -2.58890
O         51.36114        22.74794        -2.48326
H         50.58027        22.26074        -2.82448
O         47.47606        37.41574        -1.33036
H         48.18334        36.89768        -1.76960
O         56.35072        33.83309         2.46558
H         57.13297        34.34873         2.75762
O         27.66244        33.03258         2.30219
H         27.78622        33.95686         2.61271
O         27.61095        28.67993         2.02909
H         27.64958        29.60423         2.36003
O         47.74510        35.62440         1.91245
H         47.20531        36.32540         2.35280
O         36.64354        52.40539        -2.27416
H         36.58786        53.34162        -2.56368
O         48.07701        50.03747         2.48415
H         47.21648        49.90697         2.94501
O         28.94337        24.83124         1.85069
H         28.21276        25.39495         2.18471
O         45.33400        31.37844        -2.64218
H         45.69838        32.20581        -3.03834
O         36.69824        47.96414        -2.09200
H         37.58667        47.59227        -2.28081
O         27.64623        44.66308         2.21651
H         27.75361        43.75593         2.57479
O         30.37665        31.54471         2.35933
H         29.57821        32.02762         2.67824
O         42.92652        41.82113         2.17013
H         42.14232        41.42459         2.60547
O         46.94997        20.67080         1.49071
H         46.14217        20.90341         2.01152
O         30.51286        24.90524        -1.45301
H         31.47775        24.80697        -1.72591
O         37.46079        37.43537         1.94784
H         37.94638        36.71249         2.39751
O         35.19553        29.08618         2.29744
H         35.66101        29.93499         2.49082
O         44.18161        20.81411         1.89174
H         43.96151        19.89252         2.14969
O         47.94480        52.98378         2.53836
H         47.11483        53.25367         2.98418
O         49.26023        26.63762        -2.03867
H         48.47619        26.24446        -2.47913
O         36.81421        37.92051        -1.62515
H         36.21894        38.58134        -2.05980
O         54.35460        44.13301         1.77679
H         53.70153        43.72145         2.38223
O         35.24791        23.01470         2.57292
H         35.54607        22.11316         2.85508
O         32.53290        37.41539        -1.48586
H         33.38222        37.19178        -1.92447
O         45.35995        49.09188        -1.38684
H         45.33273        48.22845        -1.85132
O         35.25379        40.20689        -1.77658
H         35.85388        40.91095        -2.10677
H         22.22631        26.86495        -1.40748
H         22.18146        29.31002        -1.22490
H         22.18674        31.19080        -1.15347
H         22.18883        33.60575        -1.07863
H         22.13629        35.47101        -0.89198
H         22.12501        37.88630        -0.82313
H         22.09443        39.75103        -0.70326
H         22.07442        42.16816        -0.66675
H         22.06052        44.04916        -0.62595
H         22.07992        46.50381        -0.63779
H         25.50241        23.46181        -1.01329
H         23.42536        24.74229        -1.34355
H         25.38023        49.89042        -0.39781
H         23.28380        48.62368        -0.55611
H         27.16656        22.51447        -0.85864
H         26.97596        50.84827        -0.13315
H         29.19611        21.27170        -0.38604
H         29.03319        52.10324        -0.18290
H         32.85835        19.10133         0.43767
H         30.77641        20.30279         0.13949
H         32.84187        54.21310        -0.30064
H         30.74029        53.05059        -0.11137
H         34.47841        18.20469         0.34613
H         34.48753        55.14839        -0.35412
H         36.57100        17.01840         0.17814
H         36.58428        56.33900        -0.50777
H         40.24116        14.94192        -0.76573
H         38.13456        16.13278        -0.35281
H         40.40548        58.47703        -0.30273
H         38.24745        57.29769        -0.40946
H         42.70417        14.93389        -0.90340
H         42.86524        58.45042        -0.20228
H         44.85254        16.11735        -0.79118
H         44.96384        57.26163         0.13313
H         48.60260        18.13497        -0.88954
H         46.48892        16.97204        -0.57212
H         48.60332        55.15672         0.95714
H         46.57707        56.31221         0.37900
H         50.35049        19.17780        -0.92287
H         50.05882        54.13725        -0.06520
H         52.42470        20.44398        -0.88749
H         52.08775        52.92809        -0.67489
H         56.11494        22.83721        -0.87287
H         54.04146        21.60909        -1.28649
H         55.79499        50.72272        -1.35729
H         53.73238        51.95028        -1.00255
H         57.63681        24.05177        -1.14143
H         57.47675        49.79219        -1.41841
H         59.77266        24.98156        -0.41488
H         61.07750        26.86610         0.69225
H         61.02726        29.26524         0.53890
H         61.01189        31.11920         0.23535
H         61.01246        33.52912         0.11395
H         60.96657        35.37346        -0.14138
H         61.01457        37.75887        -0.40654
H         60.98023        39.71735        -0.55823
H         60.91979        42.10039        -1.04886
H         60.88906        43.98176        -1.30335
H         60.81403        46.40630        -1.65468
H         59.56805        48.53030        -1.68945
