         429
 CSIRO Nanostructure Databank - Neutral Graphene Oxide Data Set
C          1.36252         3.71505         1.16244
C          0.19457         4.24283         0.62432
C          1.15851         6.49025         0.58427
C          0.09234         5.60632         0.32500
C          1.10110         7.90419         0.16771
C         -0.07187         8.50508        -0.32856
C          1.07641        10.62979        -0.68193
C         -0.09186         9.85993        -0.67416
C          1.05716        12.13974        -0.73231
C         -0.11975        12.79294        -1.40530
C          1.14098        14.86181        -1.45008
C         -0.08482        14.14819        -1.59145
C          1.24173        16.29837        -1.01259
C         -0.00213        17.14379        -1.05553
C          1.44704        19.00615        -0.45475
C          0.13792        18.45357        -0.72653
C          1.61324        20.20315         0.45288
C          0.35215        20.98609         0.61361
C          1.43156        23.10505         0.03326
C          0.28360        22.32703         0.40026
C          1.35410        24.53697        -0.10349
C          0.10657        25.22282         0.00339
C          1.22023        27.39039        -0.08747
C          0.04572        26.59605         0.01845
C          1.20558        28.80541         0.15656
C          0.00524        29.48932         0.49282
C          1.24147        31.52508         1.00723
C          0.02108        30.80418         0.89659
C          1.28079        32.86869         1.52649
C          0.10154        33.55186         1.92674
C          1.40500        35.47213         2.64811
C          0.15669        34.82471         2.45530
C          1.45642        36.81993         3.17983
C          3.67716         4.04787         1.99672
C          2.46129         4.56404         1.43846
C          3.46222         6.82697         1.51985
C          2.33454         5.95573         1.16962
C          3.45104         8.24903         0.93891
C          2.27530         8.69426         0.18756
C          3.56870        10.71008        -0.47474
C          2.30308        10.01350        -0.32801
C          3.57949        12.04482        -1.04945
C          2.36513        12.74800        -1.18255
C          3.61129        14.81183        -1.72268
C          2.36841        14.13783        -1.46516
C          3.65775        16.24456        -1.79766
C          2.37934        17.05355        -1.71921
C          3.85311        19.00351        -1.01737
C          2.58827        18.39678        -1.02035
C          4.06989        20.30103        -0.24315
C          2.76860        21.03778        -0.02629
C          3.91821        23.18303        -0.37232
C          2.67230        22.40699        -0.15440
C          3.83657        24.67357        -0.43792
C          2.51529        25.31800        -0.33095
C          3.65907        27.50710        -0.55344
C          2.46023        26.73384        -0.34275
C          3.64484        28.89687        -0.28338
C          2.43148        29.53081         0.15583
C          3.68886        31.60704         0.64691
C          2.44718        30.88652         0.60455
C          3.74451        32.90037         1.20358
C          2.54086        33.52400         1.68056
C          3.91561        35.41373         2.65737
C          2.58696        34.81534         2.26930
C          3.86860        36.91618         2.80775
C          2.62644        37.51887         3.22019
C          6.03297         4.33745         2.73984
C          4.80615         4.84856         2.19082
C          5.90734         7.05537         1.92995
C          4.75853         6.24428         1.87339
C          5.87194         8.35817         1.32211
C          4.73980         8.90174         0.72294
C          6.05626        10.69031        -0.42456
C          4.77507        10.12584        -0.05284
C          6.05578        11.77625        -1.53015
C          4.80814        12.66229        -1.42945
C          5.99307        14.68171        -2.37331
C          4.79926        14.02254        -1.81057
C          6.03994        16.22788        -2.42767
C          4.85183        16.94359        -1.96314
C          6.21423        19.00842        -1.78120
C          4.98664        18.34308        -1.60085
C          6.44104        20.38963        -1.20595
C          5.16881        21.13187        -0.87495
C          6.09663        23.29765        -1.72126
C          5.09371        22.47789        -0.94134
C          6.18124        24.77017        -1.35874
C          4.95816        25.45864        -0.99735
C          6.00914        27.65898        -1.45808
C          4.86125        26.84113        -0.99729
C          6.03131        29.11067        -1.07103
C          4.84077        29.69172        -0.39456
C          6.03982        31.86086        -0.16358
C          4.85481        31.00539         0.05355
C          6.14026        33.12754         0.56110
C          4.99772        33.64345         1.22663
C          6.23244        35.70748         1.68093
C          5.06279        34.92213         1.81467
C          6.24337        37.07593         2.20223
C          5.01996        37.65105         2.68847
C          8.35107         4.59290         3.60941
C          7.14474         5.13207         2.88222
C          8.37408         7.21986         2.37178
C          7.15871         6.50158         2.41830
C          8.36840         8.62492         1.89130
C          7.09999         9.16474         1.28107
C          8.52793        10.33567        -0.33381
C          7.19476        10.13267         0.15538
C          8.58864        12.07991        -1.56500
C          7.31139        12.63922        -1.58323
C          8.57385        14.69858        -2.34989
C          7.28400        13.95570        -2.24043
C          8.54780        16.15178        -2.73709
C          7.32245        16.94181        -2.49210
C          8.59537        19.08632        -2.56103
C          7.38435        18.32353        -2.27201
C          8.60076        20.49163        -2.46920
C          7.47586        21.20292        -1.95916
C          8.56705        23.41194        -2.17630
C          7.43567        22.61733        -1.90189
C          8.59562        24.82313        -1.91451
C          7.33731        25.47981        -1.59016
C          8.57268        27.65252        -1.31415
C          7.32209        26.97139        -1.84157
C          8.55857        29.04490        -0.96199
C          7.35146        29.76004        -0.89787
C          8.61980        31.88143        -0.33112
C          7.35716        31.19730        -0.64384
C          8.57362        33.22952         0.04812
C          7.35741        33.86107         0.51615
C          8.56882        36.08051         0.80493
C          7.37627        35.18135         1.04998
C          8.63797        37.27010         1.72844
C          7.41823        37.80584         2.23140
C         10.83145         4.55284         3.35971
C          9.64351         5.22339         3.15516
C         10.88371         7.14357         2.27577
C          9.63480         6.55400         2.61619
C         10.94815         8.52520         1.76546
C          9.67616         9.28396         1.53173
C         10.94554        10.84819        -0.04348
C          9.70409        10.21809         0.38201
C         10.97209        12.13286        -0.77042
C          9.81106        12.75906        -1.33071
C         11.06186        14.88274        -1.94364
C          9.75371        14.26104        -1.49506
C         11.11183        16.18304        -2.39895
C          9.85190        16.86377        -2.81082
C         11.14544        19.07863        -3.05933
C          9.81714        18.35629        -2.97017
C         11.12337        20.58369        -3.07670
C          9.78065        21.27678        -2.91568
C         11.07304        23.53709        -2.75969
C          9.77404        22.77208        -2.72277
C         11.09350        25.04348        -2.45290
C          9.79105        25.56573        -1.86762
C         11.01999        27.60887        -1.07813
C          9.78176        26.94966        -1.43235
C         11.03282        28.94896        -0.69937
C          9.81397        29.72170        -0.68728
C         11.10741        31.77898        -0.19997
C          9.83912        31.11438        -0.40642
C         11.13935        33.25465        -0.09569
C          9.82929        34.01115         0.06506
C         11.07753        35.93345         1.02280
C          9.86964        35.32637         0.71886
C         11.09865        37.25352         1.66459
C          9.85072        37.86182         2.01087
C         13.29922         4.45353         3.21400
C         12.08685         5.12204         2.98427
C         13.34350         6.97298         1.90049
C         12.09506         6.42515         2.38558
C         13.32446         8.24663         1.19598
C         12.16492         8.98818         1.07496
C         13.40959        10.97678         0.27003
C         12.14943        10.28121         0.41138
C         13.41770        12.31910        -0.29521
C         12.19871        12.85258        -0.83826
C         13.57041        14.89046        -1.69172
C         12.27196        14.10416        -1.64200
C         13.53945        16.32901        -1.99310
C         12.35271        16.95948        -2.41427
C         13.55979        19.12762        -2.46657
C         12.37242        18.36610        -2.65556
C         13.55166        20.59302        -2.57570
C         12.37673        21.32418        -2.80420
C         13.52528        23.47097        -2.44893
C         12.34971        22.76986        -2.69008
C         13.54480        24.84537        -1.97185
C         12.34118        25.50303        -1.73939
C         13.60302        27.51289        -0.81855
C         12.27844        26.80167        -1.05488
C         13.58636        28.97242        -0.60763
C         12.28895        29.56909        -0.09825
C         13.55904        31.76806        -0.01707
C         12.29554        31.07606        -0.14980
C         13.57913        33.14800         0.37040
C         12.36071        33.90442         0.41410
C         13.62267        35.96472         1.05268
C         12.32032        35.22886         0.85197
C         13.55719        37.21935         1.89106
C         12.29027        37.84402         2.06773
C         15.75578         4.39446         3.16539
C         14.53438         5.02849         2.82914
C         15.84503         6.68904         1.45637
C         14.53770         6.27762         2.11417
C         15.87762         8.16511         1.03543
C         14.59547         8.88762         0.81759
C         15.85409        11.08336         0.75761
C         14.58287        10.35917         0.68411
C         15.86952        12.49619         0.18833
C         14.63053        13.01075        -0.39545
C         15.99987        15.05422        -1.08631
C         14.64729        14.46873        -0.73294
C         15.98040        16.37203        -1.58791
C         14.75786        17.06129        -1.88550
C         16.03525        19.21579        -1.85638
C         14.75814        18.45956        -2.13428
C         16.02798        20.63107        -2.38042
C         14.81836        21.29181        -2.53405
C         16.09807        23.51712        -2.59749
C         14.79465        22.75996        -2.71388
C         16.07126        24.89821        -2.05295
C         14.82891        25.50493        -1.71144
C         16.05823        27.56185        -1.16796
C         14.84759        26.84672        -1.25378
C         16.03196        29.03186        -1.01224
C         14.75896        29.70454        -0.64036
C         16.03689        31.84052        -0.08713
C         14.77124        31.09569        -0.26151
C         16.01661        33.06763         0.73162
C         14.79295        33.72643         0.84297
C         15.98719        35.65087         2.01754
C         14.71728        35.03352         1.51515
C         15.99996        37.10579         2.28768
C         14.73313        37.78339         2.35814
C         18.22158         4.44226         3.42299
C         17.01250         5.01436         2.93881
C         18.29443         6.91079         2.09324
C         17.07205         6.25537         2.23440
C         18.37610         8.24579         1.38443
C         17.04868         9.00129         1.52822
C         18.35340        11.07941         0.82795
C         17.12351        10.37648         0.90893
C         18.39629        12.42945         0.31678
C         17.18827        12.96452        -0.42135
C         18.31930        15.38060        -0.28759
C         17.18167        14.45058        -0.65614
C         18.49575        16.45897        -1.33995
C         17.26851        16.94184        -2.09561
C         18.52599        19.05585        -2.54099
C         17.25437        18.42093        -2.21365
C         18.55256        20.58074        -2.66824
C         17.28519        21.33875        -2.47765
C         18.61636        23.43216        -2.52369
C         17.33150        22.71546        -2.49004
C         18.58553        24.93144        -2.16462
C         17.28849        25.56830        -1.82417
C         18.55916        27.57340        -1.04251
C         17.30010        26.91384        -1.37447
C         18.56945        28.91689        -0.59306
C         17.35740        29.73648        -0.78692
C         18.54297        31.64670         0.46192
C         17.36588        31.14987        -0.28358
C         18.50090        32.94284         1.04973
C         17.24856        33.65774         1.18305
C         18.46566        35.59832         2.11651
C         17.25004        34.93667         1.77964
C         18.44278        36.97003         2.54056
C         17.20665        37.70745         2.57178
C         19.44053         5.06460         3.20330
C         20.76266         6.97637         2.25114
C         19.49810         6.31646         2.55199
C         20.81302         8.26920         1.85861
C         19.54303         9.09056         1.91933
C         20.73518        11.23435         1.32837
C         19.57328        10.46576         1.27691
C         20.72302        12.58155         0.95607
C         19.57336        13.17811         0.39968
C         20.86265        15.08880        -0.66482
C         19.67044        14.69339         0.18218
C         20.92347        16.26589        -1.32101
C         19.71632        17.02562        -1.62964
C         20.97029        19.05688        -2.35180
C         19.78605        18.34546        -2.24993
C         21.00178        20.47027        -2.46934
C         19.85277        21.25020        -2.47729
C         21.03291        23.41041        -2.08275
C         19.87567        22.69090        -2.34732
C         21.00547        24.77982        -1.73272
C         19.82872        25.51033        -1.63463
C         20.93924        27.44250        -0.52322
C         19.78022        26.83843        -1.05451
C         20.91197        28.72603        -0.00372
C         19.73460        29.50258        -0.03937
C         20.87359        31.43497         1.09096
C         19.71737        30.86700         0.50267
C         20.87178        32.73080         1.57396
C         19.69772        33.51881         1.56709
C         20.88642        35.55842         2.42147
C         19.70178        34.89037         2.04315
C         20.85570        36.88770         2.83966
C         19.65173        37.59456         2.89226
O         13.23162        13.99582        -2.76913
O         18.50876        19.73822        -3.86857
O         12.91958        26.77671         0.28314
O         10.33579        21.00052        -4.22953
O          8.15187        13.87597        -3.45629
O         10.53955        33.96627        -1.23173
O          9.22472        16.30077        -4.02721
O          7.52431         9.58810         2.62684
O         10.48002         9.58854         2.70045
O         16.86470        32.06877        -1.30042
O         16.77462        29.65105        -2.12081
O          5.67178        28.68522        -2.45405
O         18.67234        24.47564        -3.54866
O          3.12011         7.98952         2.34538
O          8.64655        10.68394        -1.68093
O         15.01695        34.96851         2.93113
O          6.47890        31.94552        -1.55445
O         15.45167        23.31898        -3.90551
O         10.46430        18.61175        -4.26365
O          5.78354        15.37597        -3.61526
O         15.42771         8.32140        -0.33676
O         10.27064        23.38759        -3.97380
O         15.83777        12.32208         1.62082
O          4.25686        23.98032         0.82596
O         20.01254        15.19802         1.45313
O          5.51990        23.32991        -3.07963
H          6.13161        23.84330        -3.65124
O         17.18874        12.34184        -1.74978
H         17.93313        12.71291        -2.26861
O         15.92443         5.90447         0.22387
H         15.46259         6.43717        -0.46859
O         14.04778        36.38709        -0.28586
H         13.30199        36.86882        -0.70213
O          1.60982        16.16049         0.40150
H          1.62504        17.06323         0.79310
O          4.18621        34.89773         4.01724
H          3.44923        35.20028         4.58987
O          8.36759        36.64533        -0.54124
H          8.45670        35.91056        -1.18638
O         16.72018         9.20583         2.92610
H         17.54342         9.49688         3.39409
O         11.19496        25.73046        -3.74161
H         10.65412        25.20356        -4.37775
O          7.09008        20.13592         0.09518
H          6.36758        19.90958         0.73339
O         12.23832        29.22326         1.33326
H         12.37237        28.24351         1.37904
O          0.92634        12.52189         0.69433
H          1.02370        13.49920         0.74296
O          1.97002        19.64275         1.80297
H          1.85006        20.36875         2.45347
O          4.55464        19.87066         1.07425
H          3.75218        19.55599         1.57229
O          7.43092        27.05280        -3.29822
H          6.96684        27.88446        -3.56085
O         17.41807        16.38899        -3.46592
H         17.98998        17.00498        -3.97398
O          5.95068        11.06667        -2.79732
H          6.83424        10.67917        -2.98472
O         19.30538         9.33860         3.34646
H         20.00027         9.95290         3.66493
O         18.62207         8.03121        -0.01936
H         17.91827         7.44296        -0.36905
O         17.79705        16.08232         0.88102
H         18.56381        16.03238         1.53510
O          9.46638        14.84633        -0.17604
H         10.14780        14.52741         0.45407
O         14.29471        15.15593         0.52047
H         14.97813        14.93233         1.19018
O          8.18321         4.84976         5.02188
H          8.11473         5.81933         5.14587
O         16.10593        19.37563        -0.37544
H         16.16931        18.47598         0.01662
O          1.94955        17.29460        -3.08158
H          2.71033        17.65383        -3.58433
H          1.44194         2.63931         1.37362
H         -0.65650         3.58050         0.41284
H         -0.83504         5.97832        -0.13105
H         -1.01327         7.94011        -0.36457
H         -1.05558        10.31974        -0.93403
H         -1.06794        12.24853        -1.51673
H         -1.00044        14.69418        -1.86528
H         -0.99721        16.70044        -1.19840
H         -0.75069        19.09008        -0.61500
H         -0.53875        20.45268         0.97527
H         -0.67893        22.82966         0.56604
H         -0.82792        24.65615         0.10360
H         -0.93334        27.07656         0.14421
H         -0.95714        28.96293         0.45118
H         -0.92977        31.28471         1.16076
H         -0.87904        33.07224         1.81031
H         -0.76802        35.34418         2.74457
H          0.51218        37.29772         3.47849
H          3.72611         2.97837         2.24962
H          2.63291        38.57561         3.52695
H          6.06494         3.29069         3.07802
H          5.01130        38.72502         2.93248
H          8.40501         3.48098         3.49588
H          7.43180        38.79251         2.71956
H         10.81847         3.55109         3.81446
H          9.87262        38.78447         2.61160
H         13.29309         3.47578         3.71810
H         12.24974        38.80629         2.60164
H         15.72424         3.43352         3.70081
H         14.70121        38.77943         2.82726
H         18.18110         3.48164         3.95663
H         17.24231        38.77764         2.82540
H         20.37080         4.59341         3.55219
H         21.68552         6.38078         2.32603
H         21.77613         8.74058         1.61403
H         21.66334        10.79939         1.72756
H         21.62191        13.19156         1.11573
H         21.78809        14.51108        -0.51767
H         21.87451        16.59613        -1.76395
H         21.92897        18.54381        -2.19237
H         21.98654        20.95590        -2.43005
H         21.99991        22.89213        -2.02913
H         21.95883        25.23539        -1.43373
H         21.88876        26.89252        -0.50474
H         21.84018        29.13867         0.41066
H         21.80812        30.86238         1.14370
H         21.80454        33.13776         1.98621
H         21.85428        35.04188         2.37458
H         21.79276        37.38841         3.12043
H         19.64405        38.64640         3.21165
