         671
 CSIRO Nanostructure Databank - Neutral Graphene Oxide Data Set
C          5.93854        31.67152         1.03184
C          5.92272        33.03632         0.96971
C          8.38424        27.36843         0.64423
C          8.37298        28.75009         0.87717
C          7.16331        29.51676         0.90387
C          8.42110        31.61814         1.02161
C          7.16945        30.90688         1.00752
C          8.44284        33.13191         1.19271
C          7.13261        33.81662         0.87956
C          8.32594        35.91790         0.32958
C          7.11976        35.16727         0.61380
C          8.31944        37.29948         0.19252
C         10.79571        23.14942        -0.06523
C         10.80023        24.36670         0.85477
C          9.60313        25.23402         0.54248
C         10.84304        27.25132         1.23751
C          9.58902        26.58856         0.71810
C         10.84465        28.73770         0.99006
C          9.63376        29.45834         0.97991
C         10.88949        31.60536         0.76452
C          9.60429        30.90092         0.99564
C         10.86534        33.05545         0.35995
C          9.59840        33.81777         0.48837
C         10.68328        35.82844        -0.55947
C          9.55427        35.14392         0.14744
C         10.63932        37.32571        -0.73301
C          9.47419        38.07174        -0.18788
C         10.71209        40.22660        -0.42665
C          9.51184        39.45307        -0.15912
C         10.55984        41.74733        -0.52158
C         13.30354        18.80272        -0.58430
C         13.23144        20.23432        -0.38535
C         11.93584        20.85432        -0.45240
C         13.52450        23.05800         0.83106
C         11.62770        22.08929         0.18477
C         13.39959        24.42951         0.65033
C         12.13969        25.13576         0.78725
C         13.34557        27.29144         0.81829
C         12.13679        26.54213         0.84084
C         13.35004        28.70609         0.92020
C         12.09550        29.40849         0.96987
C         13.33236        31.42598         1.33506
C         12.11123        30.82038         1.07586
C         13.27021        33.55753         0.74565
C         12.08176        33.89824         0.18982
C         13.20617        36.03039        -0.34200
C         12.02288        35.09704        -0.73268
C         13.20128        37.38536        -1.05572
C         11.85716        38.14847        -1.18835
C         13.17396        40.38037        -0.91581
C         11.90020        39.58311        -0.66443
C         13.05990        41.78827        -0.32417
C         11.86686        42.52195        -0.48453
C         13.17253        44.62636        -0.41465
C         11.93110        43.92538        -0.43265
C         13.23751        46.05686        -0.37659
C         15.80087        14.56089         0.25163
C         15.75839        15.96148         0.01517
C         14.53511        16.65760        -0.26888
C         15.74039        18.83127        -0.04356
C         14.47084        18.05942        -0.34784
C         15.69482        20.19165        -0.73218
C         14.46952        20.91469        -0.17694
C         15.89693        23.05368        -0.02833
C         14.66813        22.26126         0.36454
C         15.79392        24.52802         0.00401
C         14.63748        25.16435         0.36305
C         15.78342        27.42244         0.19161
C         14.68602        26.60213         0.82220
C         15.79071        28.79322         0.32067
C         14.57341        29.46172         0.77168
C         15.68756        31.69234         0.34724
C         14.56784        30.85018         0.96608
C         15.70677        33.23307         0.47490
C         14.57378        34.00191         0.33150
C         15.74919        36.14947        -0.08044
C         14.56905        35.29327        -0.45800
C         15.74570        37.48444        -0.62276
C         14.47399        38.15734        -0.97728
C         15.79663        40.27958        -0.81245
C         14.45560        39.59153        -0.48107
C         16.08589        41.42790        -0.16281
C         14.18681        42.53388         0.06970
C         15.73089        44.48227        -0.37453
C         14.38527        43.89278        -0.20189
C         15.72750        45.98768        -0.69738
C         14.45743        46.72287        -0.30693
C         15.71015        48.83152         0.06873
C         14.50831        48.12539        -0.11871
C         15.74328        50.23108         0.14357
C         18.33804        10.35505         0.45675
C         18.30076        11.72695         0.57288
C         16.97454        12.42035         0.78222
C         18.23791        14.61227         0.52705
C         17.00688        13.90311         0.49052
C         18.22929        16.02227         0.28016
C         16.99894        16.65716         0.01274
C         18.27130        18.82533        -0.47655
C         16.98545        18.06605        -0.39602
C         18.22251        20.31189        -0.49528
C         17.00591        20.94243        -0.64278
C         18.23263        23.13312        -0.83452
C         16.92330        22.40653        -0.95871
C         18.15754        24.62365        -1.04514
C         17.10576        25.27326        -0.10410
C         18.17037        27.52450        -0.76936
C         16.91489        26.73946        -0.43409
C         18.16674        28.94274        -0.35360
C         17.01607        29.55210         0.10390
C         18.22943        31.74260         0.00866
C         17.03199        30.99640         0.63858
C         18.31576        33.20367         0.39921
C         17.02055        33.94286         0.46386
C         18.32093        36.04918        -0.16671
C         17.05780        35.42752         0.23023
C         18.30554        37.34770        -0.84950
C         16.97445        38.07098        -1.09723
C         18.28508        40.26254        -1.46479
C         16.96811        39.53743        -1.39040
C         18.23581        41.80318        -1.37236
C         17.26288        42.32718        -0.27739
C         18.18188        44.60549        -0.96247
C         16.92919        43.81598        -0.53049
C         18.20013        46.00231        -0.33781
C         16.99369        46.65748        -0.20125
C         18.22828        48.82872         0.14346
C         16.96080        48.04556         0.39633
C         18.22104        50.23101         0.12225
C         16.95979        50.97308         0.21255
C         18.16892        53.14856         0.22775
C         16.96561        52.36681         0.31917
C         18.19873        54.51791         0.37482
C         20.89743         6.12271         0.36681
C         20.85565         7.53232         0.32392
C         19.61946         8.24002         0.32384
C         20.80642        10.38337         0.44523
C         19.57841         9.63550         0.38458
C         20.76832        11.80298         0.58148
C         19.51856        12.49038         0.61265
C         20.71640        14.64193         0.78025
C         19.49849        13.91385         0.67245
C         20.64882        16.14376         0.97753
C         19.44906        16.78888         0.33426
C         20.69014        18.91880         0.08043
C         19.49619        18.14451        -0.01843
C         20.70179        20.33210        -0.24671
C         19.46878        21.03339        -0.49242
C         20.68069        23.23448        -0.72404
C         19.43765        22.47189        -0.67597
C         20.71009        24.61716        -0.83899
C         19.46658        25.38139        -0.87859
C         20.72250        27.51176        -1.26396
C         19.45613        26.75619        -0.87065
C         20.73410        28.97759        -0.82538
C         19.45643        29.67825        -0.45576
C         20.75308        31.79080        -0.08478
C         19.53782        30.99600         0.29762
C         20.78575        33.18075        -0.06248
C         19.56566        33.93212         0.05302
C         20.78656        36.02712        -0.43577
C         19.54535        35.32232        -0.15968
C         20.77506        37.43032        -0.66050
C         19.54886        38.14730        -0.88436
C         20.75293        40.27366        -0.94316
C         19.53996        39.52209        -1.13899
C         20.73470        41.68471        -0.86325
C         19.55016        42.45321        -1.02936
C         20.73335        44.58751        -0.74567
C         19.48262        43.82162        -0.79431
C         20.71282        46.03934        -0.38340
C         19.43492        46.70114        -0.11616
C         20.69342        48.84389        -0.03744
C         19.45871        48.12237         0.03508
C         20.68405        50.26333        -0.08883
C         19.43999        50.94006        -0.04064
C         20.73006        53.11590         0.00633
C         19.41115        52.40485        -0.12366
C         20.68058        54.49359         0.55279
C         19.46273        55.33611         0.18870
C         20.68434        57.30579         1.18037
C         19.49187        56.64570         0.93859
C         20.74390        58.63672         1.66793
C         23.39776         3.35396         0.62573
C         22.17759         4.00474         0.53688
C         23.35203         6.16521         0.43067
C         22.12113         5.42727         0.44603
C         23.31682         7.56880         0.31922
C         22.08919         8.27213         0.30555
C         23.25519        10.46683         0.50326
C         22.05115         9.70870         0.37116
C         23.21833        11.83594         0.76194
C         21.98007        12.53567         0.74710
C         23.20706        14.68720         0.93776
C         21.94883        13.96671         0.86792
C         23.21514        16.20066         1.08433
C         21.92638        16.88229         0.69130
C         23.17091        19.03249         0.65542
C         21.90949        18.23356         0.42119
C         23.17381        20.43110         0.07054
C         21.92936        21.03899        -0.30529
C         23.14164        23.21871        -0.25480
C         21.96703        22.44727        -0.87413
C         23.18452        24.67154        -0.63900
C         21.98624        25.34979        -0.84261
C         23.20437        27.48230        -0.84369
C         22.00251        26.78450        -0.92379
C         23.22899        28.92142        -0.56796
C         22.00531        29.59644        -0.39585
C         23.28392        31.76503         0.13763
C         21.99056        31.00750         0.00710
C         23.28268        33.21456        -0.12518
C         22.05225        33.89873        -0.19395
C         23.25940        36.01873        -0.53976
C         22.02320        35.31626        -0.38829
C         23.24774        37.43706        -0.66277
C         22.00893        38.14937        -0.71186
C         23.22944        40.28630        -0.63570
C         21.98848        39.56551        -0.75459
C         23.22543        41.67568        -0.39631
C         21.89632        42.37297        -0.18967
C         23.12842        44.52495         0.11999
C         22.04586        43.82067        -0.68877
C         23.11909        45.98869         0.26912
C         21.95854        46.70181         0.07541
C         23.16607        48.82584         0.16676
C         21.95786        48.14289         0.10160
C         23.22156        50.23539        -0.34444
C         21.94522        50.99106        -0.07743
C         23.24434        53.07379         0.29987
C         21.98950        52.35354         0.10776
C         23.24549        54.43390         0.63714
C         21.97204        55.15745         0.86112
C         23.18286        57.17805         1.57400
C         21.99683        56.66862         0.75400
C         23.21596        58.67546         1.62316
C         21.97705        59.35564         1.76846
C         23.21863        61.44138         2.06026
C         22.00253        60.75807         2.00045
C         24.60687         4.07148         0.63224
C         25.83936         6.21177         0.57320
C         24.61538         5.47404         0.53202
C         25.86867         7.60397         0.44473
C         24.58940         8.30029         0.17479
C         25.80095        10.51871         0.62282
C         24.55488         9.80107         0.29104
C         25.75947        11.87214         0.88365
C         24.45748        12.55260         1.23539
C         25.69010        14.74701         0.92396
C         24.42120        14.03296         0.96012
C         25.70248        16.13079         0.71232
C         24.39216        16.75378         0.25962
C         25.68959        19.01069         0.24436
C         24.40898        18.27107         0.20531
C         25.66197        20.49161         0.56289
C         24.38236        21.10539         0.03532
C         25.66737        23.29073         0.11227
C         24.47921        22.50603        -0.49964
C         25.66718        24.65488        -0.53203
C         24.45607        25.33617        -0.72340
C         25.66239        27.46747        -1.03718
C         24.46269        26.77113        -0.90761
C         25.66950        28.92911        -0.92591
C         24.46996        29.57393        -0.37528
C         25.86002        31.73983        -0.05096
C         24.55783        30.98659         0.02307
C         25.78988        33.20253        -0.32628
C         24.53097        33.89410        -0.32785
C         25.72712        36.02947        -0.68330
C         24.50223        35.30875        -0.53227
C         25.71329        37.45659        -0.76039
C         24.47648        38.15805        -0.73601
C         25.69633        40.30899        -0.68588
C         24.46773        39.58208        -0.70381
C         25.66630        41.71706        -0.50186
C         24.44537        42.38259        -0.29887
C         25.67891        44.60208         0.26234
C         24.43695        43.80021         0.16244
C         25.64494        45.91456         0.63353
C         24.34991        46.62448         0.75586
C         25.70614        48.82515         0.37111
C         24.39232        48.16905         0.61028
C         25.69154        50.22450         0.10503
C         24.49168        50.95488         0.03222
C         25.73580        53.06822         0.37564
C         24.48621        52.36189         0.19180
C         25.72468        54.46540         0.65150
C         24.48026        55.15812         0.80756
C         25.70546        57.24940         1.26402
C         24.47620        56.52452         1.15197
C         25.67517        58.64372         1.54790
C         24.45321        59.36411         1.69131
C         24.43159        60.77229         1.90299
C         27.05219         8.37060         0.53491
C         28.25233        10.51759         0.76026
C         27.05625         9.78998         0.59537
C         28.25612        11.92914         0.89545
C         26.97921        12.63124         0.95808
C         28.20809        14.78336         0.71065
C         26.93390        14.02320         0.99421
C         28.11754        16.22029         1.13728
C         26.92044        16.88913         0.85813
C         28.11747        19.01992         0.53273
C         26.94450        18.30898         0.57949
C         28.16356        20.34929        -0.18228
C         26.92063        21.17766         0.05601
C         28.20625        23.22836        -0.39933
C         26.95479        22.52608        -0.11961
C         28.21671        24.58495        -0.71657
C         26.91504        25.23842        -0.99050
C         28.21513        27.47774        -1.23510
C         26.91626        26.76378        -1.28112
C         28.21635        28.84622        -1.22394
C         26.96737        29.65473        -1.06941
C         28.26806        31.81694        -0.89518
C         27.17040        30.96793        -0.30671
C         28.23130        33.17548        -0.85098
C         26.98085        33.89766        -0.60601
C         28.18309        36.06162        -0.80422
C         26.96033        35.31854        -0.73701
C         28.15750        37.44999        -0.75409
C         26.94071        38.19089        -0.79805
C         28.17962        40.36460        -0.67894
C         26.94215        39.61417        -0.78274
C         28.19954        41.71759        -0.43663
C         26.93352        42.47310        -0.48638
C         28.21777        44.54272         0.34977
C         26.93948        43.92604        -0.12025
C         28.18904        45.95400         0.84886
C         26.87847        46.71039         1.06272
C         28.18123        48.80850         0.43564
C         26.90958        48.12397         0.51116
C         28.21679        50.18836         0.25368
C         26.98541        50.94095        -0.16749
C         28.20096        53.07371         0.44006
C         26.96390        52.38187         0.27219
C         28.18534        54.45770         0.69139
C         26.96295        55.17351         0.80491
C         26.93052        56.56221         1.07754
C         29.45604        12.64863         1.04095
C         30.60311        14.78123         1.45556
C         29.47064        14.07552         1.13563
C         30.61367        16.24045         1.83957
C         29.30326        16.96075         1.53394
C         30.61703        19.10408         0.85916
C         29.32661        18.45822         1.11981
C         30.63519        20.45293         0.40923
C         29.43043        21.13392         0.07084
C         30.68580        23.21310        -0.38711
C         29.45176        22.51521        -0.23678
C         30.68962        24.60283        -0.77137
C         29.44977        25.30493        -0.90995
C         30.69813        27.37215        -1.38569
C         29.46777        26.70790        -1.21892
C         30.75603        28.85306        -1.77624
C         29.43559        29.60599        -1.57527
C         30.76711        31.79235        -1.36079
C         29.46029        31.09876        -1.43062
C         30.75160        33.20146        -1.15474
C         29.44214        33.94954        -1.34129
C         30.61474        35.98332        -0.42055
C         29.46644        35.36335        -0.80991
C         30.58585        37.44949        -0.01852
C         29.45273        38.15485        -0.72597
C         30.71912        40.34153        -0.38817
C         29.46499        39.64105        -0.73791
C         30.73440        41.69701        -0.17579
C         29.43607        42.40460         0.12301
C         30.75165        44.53819         0.37788
C         29.49795        43.91563        -0.19686
C         30.72704        45.91967         1.01057
C         29.45523        46.70825         0.76625
C         30.70164        48.80884         0.56529
C         29.43823        48.07320         0.61257
C         30.67886        50.20159         0.46857
C         29.45387        50.92850         0.35807
C         29.43105        52.32882         0.39702
C         31.82866        17.00298         1.36882
C         33.06262        19.10344         0.95666
C         31.82876        18.37030         1.06506
C         33.07813        20.45658         0.68456
C         31.87874        21.16093         0.35248
C         33.15622        23.17194        -0.32063
C         31.91609        22.52041        -0.10945
C         33.15726        24.40300        -1.21970
C         31.92460        25.27744        -1.02129
C         33.22106        27.38146        -1.51714
C         31.92780        26.64929        -1.32413
C         33.23149        28.87649        -1.25993
C         31.89436        29.53531        -0.93936
C         33.15628        31.70126        -0.83363
C         31.96590        31.04743        -1.10180
C         33.24934        33.19490        -1.05878
C         31.92349        33.87839        -0.85792
C         33.10596        35.93385         0.10323
C         31.81294        35.14064        -0.04722
C         33.12784        37.43752         0.07181
C         31.89362        38.19143        -0.21068
C         33.24260        40.30101        -0.52492
C         31.94002        39.55217        -0.35446
C         33.18695        41.73609        -0.04187
C         31.98351        42.41670         0.02096
C         33.21058        44.54616         0.52215
C         31.93864        43.84391         0.33533
C         33.19092        45.96829         0.62035
C         31.98923        46.69289         0.70765
C         31.93155        48.08900         0.60828
C         34.36264        21.22789         0.83340
C         35.59791        23.16083        -0.05344
C         34.37716        22.54935         0.09204
C         35.73608        24.48816        -0.66584
C         34.50229        25.14776        -1.22876
C         35.76332        27.42081        -0.94647
C         34.52923        26.64751        -1.38364
C         35.64507        28.86690        -0.60613
C         34.45495        29.53477        -0.74591
C         35.61921        31.70743        -0.22887
C         34.31280        30.94693        -0.21237
C         35.63187        33.08270        -0.22631
C         34.41307        33.86655        -0.35772
C         35.58779        35.91695         0.55478
C         34.38197        35.18967        -0.00859
C         35.69917        37.39716         0.10852
C         34.40747        38.17847         0.07191
C         35.70807        40.26767         0.16002
C         34.44654        39.53344        -0.03151
C         35.65143        41.70705         0.16686
C         34.44513        42.42274         0.16996
C         34.40979        43.83143         0.41843
C         36.87937        25.30848        -0.23797
C         38.03854        27.42559         0.10376
C         36.90419        26.67772        -0.34289
C         38.05124        28.82039         0.12417
C         36.84440        29.56683        -0.15935
C         38.08627        31.66743         0.20938
C         36.85118        30.96254        -0.06759
C         38.13340        33.06058         0.20521
C         36.91546        33.80895        -0.12271
C         38.13200        35.97594         0.62987
C         36.90028        35.28090         0.15714
C         38.09982        37.33350         0.85697
C         36.80623        38.12924         0.90639
C         36.86819        39.58285         0.46775
C         39.24469        29.52840         0.47529
C         40.49453        31.64557         0.79126
C         39.28484        30.91436         0.49841
C         40.51582        33.00939         0.82146
C         39.32456        33.78731         0.56656
C         39.32188        35.17480         0.73591
O         17.62239        18.27535        -1.69011
O         10.22311        36.40694        -1.82897
O         15.18607        41.87966         0.80598
O         26.09612        29.66509        -2.22482
O         20.09406        52.97673        -1.31493
O         29.14200        30.48108        -2.74961
O         13.98327        37.64470        -2.26499
O         24.22406        47.50094         1.90098
O         24.63281         9.14449        -1.03043
O         37.03064        34.81982        -1.20744
O         29.71917        38.84628        -1.97801
O         17.77522        33.56773         1.69867
O         12.48499        22.29896         1.33443
O         28.25304        44.79756         1.78406
O         17.55918        39.83276        -2.68287
O         25.02680        18.72614        -1.04164
O         26.84923        25.78081        -2.35144
O         16.27085        36.10991         1.29463
O         25.34925        31.32065         1.26281
O         19.99124        29.80563        -1.81394
O         26.95948        43.56797        -1.55165
O         13.28564        32.71093         1.85559
O         17.16860        27.19564        -1.81100
O         17.61053        37.26147        -2.15181
O         21.12669        54.59755         1.93255
O         35.51741        27.09158        -2.35065
O         22.58520        31.31908         1.36289
O         35.44614        24.49853        -2.13540
O         20.78741        45.60202        -1.84497
O         33.30647        28.34150        -2.60475
O         23.58477        43.90724         1.37775
O         15.86121        22.40273         1.26998
O         33.02001        36.69137         1.39732
O         10.86193        32.00735        -0.69685
O         29.08512        18.02059         2.51372
O         29.56754        44.11563        -1.62025
H         28.68703        43.86358        -2.00080
O         30.27586        37.52911         1.40649
H         31.07553        37.20833         1.88443
O         36.45192        38.22491         2.31564
H         36.31127        37.29754         2.63256
O         35.49504        20.43388         0.47027
H         35.44856        20.25488        -0.49119
O         10.78702        27.08780         2.69791
H         10.62837        26.12926         2.86682
O         22.55047        43.72284        -2.04071
H         22.19557        44.49592        -2.53929
O         23.30499        50.12564        -1.82063
H         22.42962        49.81965        -2.14274
O         27.71246        30.54354         0.98035
H         26.98008        30.65997         1.63783
O         35.49791        35.81232         2.00077
H         34.57701        36.08701         2.23754
O         31.63470        29.26638         0.47290
H         30.83300        29.76446         0.74340
O         11.65460        38.37660        -2.61414
H         11.19671        37.58309        -2.97717
O         12.15227        34.69674        -2.11092
H         11.45177        35.16757        -2.62157
O         33.94689        30.80395         1.20722
H         33.12935        30.24675         1.23404
O         17.75498        24.77322        -2.43581
H         17.63343        25.74266        -2.61793
O         25.67954        20.64723         2.00505
H         25.67474        21.62226         2.18133
O         26.75783        46.87417         2.50092
H         26.93615        45.99554         2.90384
O         12.98028        36.35639         1.04795
H         13.75482        36.85569         1.39072
O         16.90509        47.83683         1.85997
H         16.91614        48.72337         2.28003
O         20.47496        16.33312         2.43984
H         21.37713        16.29733         2.83946
O         15.72685        46.11741        -2.15136
H         16.52605        45.63759        -2.49778
O         17.10625        30.94389         2.06630
H         18.04806        30.81533         2.33431
O         21.53196        42.34770         1.21176
H         22.28683        42.72729         1.72505
O         15.93426        11.77356         0.04124
H         16.14154        11.85476        -0.91211
O         24.16162        16.28384        -1.09377
H         24.61428        16.92611        -1.68977
O         15.43184        19.95581        -2.13791
H         15.68402        20.78068        -2.61873
O         17.94963        42.26407         0.99900
H         17.29748        42.48518         1.69801
O         24.39552        12.47011         2.71594
H         24.39437        11.51990         2.95966
O         22.93073        56.73079         2.94469
H         23.67114        57.04317         3.50555
O         18.10271        31.73132        -1.42783
H         17.14556        31.71536        -1.67149
O         28.18545        20.01867        -1.61539
H         28.01911        20.84544        -2.11707
O         36.11918        37.34247        -1.27495
H         36.17951        38.25940        -1.61691
O         20.67973        27.50810        -2.72026
H         20.20365        28.33008        -2.98936
O         16.39521        22.52401        -2.32255
H         16.79797        23.34214        -2.72003
O         14.36741        39.37942         0.95324
H         14.53683        40.24822         1.39100
O         23.40326        16.45872         2.50219
H         24.21940        15.99577         2.79095
O         22.21001        56.99532        -0.63620
H         21.39131        56.73652        -1.12529
O         17.69190        25.24386         1.22671
H         17.00130        25.55247         1.85988
O         19.69688        30.70237         1.71534
H         20.57570        31.03140         2.01380
O         15.81894        19.02462         1.38994
H         15.09832        19.63515         1.65759
O          9.83905        42.01746        -1.73289
H         10.39672        41.72737        -2.48464
O         25.51904        23.41824         1.55234
H         24.56148        23.58892         1.74020
O         15.08906        26.48692         2.24771
H         14.30337        26.18499         2.75342
O         31.06071        28.90807        -3.17249
H         30.42133        29.52663        -3.59725
O         10.61473        23.97140         2.24894
H         11.24689        23.23121         2.41282
O          8.67799        33.33682         2.63089
H          8.56046        34.29209         2.81970
O         31.51198        34.61739         1.29604
H         31.81030        35.29309         1.94625
O         30.76420        16.22773         3.30205
H         30.34411        17.06007         3.62555
O         14.80604        34.93095        -1.83452
H         13.93250        34.78419        -2.27734
O         24.79195        22.45178        -1.90488
H         23.98003        22.17796        -2.39564
O         18.08994        44.85814        -2.40309
H         18.95904        45.24587        -2.66635
O         29.27544        34.09098        -2.78612
H         29.15630        33.19344        -3.16505
O         27.07085        50.99350        -1.65504
H         26.19425        51.29081        -1.98427
O         15.45564        31.53240        -1.09309
H         14.64900        32.03062        -1.34829
O         22.90213        23.19633         1.19029
H         22.05691        23.66680         1.35920
O         23.30163        19.16479         2.09625
H         22.49345        19.59817         2.43985
O         29.28019        42.33291         1.57428
H         29.36813        41.39586         1.84873
O         30.76428        45.67034         2.45778
H         29.95421        45.14408         2.66381
O         17.77762        42.31357        -2.62880
H         17.47945        41.54505        -3.17374
O         32.98376        23.85748        -2.56395
H         33.89118        23.74714        -2.93697
O         33.45572        40.39907        -1.97805
H         32.65422        40.80966        -2.36804
O         33.58187        33.35475        -2.49262
H         32.89652        32.88113        -3.01120
O         13.27296        40.60554        -2.34231
H         12.97876        39.77827        -2.79658
O         22.17982        22.32192        -2.31420
H         21.39379        21.87846        -2.69804
O         19.61362        55.66931        -1.23543
H         19.63736        54.80298        -1.71491
O         28.30545        14.81744        -0.76429
H         27.45996        15.18075        -1.10646
H          4.98812        31.11791         1.05748
H          4.96020        33.56868         0.92537
H          7.43985        26.85136         0.41369
H          6.20084        28.98609         0.84297
H          6.15474        35.68890         0.51369
H          7.38752        37.84602         0.40562
H         10.17656        23.16891        -0.97248
H          8.66846        24.71204         0.28302
H          8.61075        40.00290         0.15331
H          9.91046        42.11044         0.32040
H         12.36014        18.26447        -0.77044
H         11.12582        20.27591        -0.92236
H         11.00048        44.50865        -0.49201
H         12.29984        46.62704        -0.28516
H         14.87039        13.97436         0.23327
H         13.61685        16.06487        -0.40608
H         13.56008        48.68784        -0.11946
H         14.79736        50.78886         0.05823
H         17.39288         9.79213         0.43808
H         16.70216        12.29779         1.87016
H         16.00837        52.89529         0.44450
H         17.26116        55.05193         0.59559
H         19.95416         5.55624         0.36710
H         18.67852         7.66969         0.31341
H         18.53734        57.12573         1.20634
H         19.80394        59.17124         1.87654
H         23.42526         2.25752         0.69873
H         21.24039         3.43001         0.54113
H         23.21937        62.52717         2.23161
H         21.05602        61.30420         2.11965
H         25.56061         3.53058         0.71392
H         26.78077         5.66285         0.72752
H         26.62653        59.19128         1.62165
H         25.37999        61.32602         1.94954
H         28.01310         7.84314         0.63612
H         29.21245         9.97987         0.75990
H         29.13580        54.99529         0.82525
H         27.87665        57.11603         1.16938
H         30.40259        12.09679         1.14969
H         31.53474        14.22686         1.65374
H         31.62741        50.75977         0.48254
H         30.37972        52.87699         0.49943
H         32.80065        16.50495         1.50922
H         34.01147        18.58919         1.16901
H         34.14263        46.51568         0.53097
H         32.87030        48.65630         0.50588
H         34.48227        21.45766         1.93146
H         36.49777        22.65883         0.33252
H         36.58986        42.25734         0.33780
H         35.36418        44.36744         0.53776
H         37.72655        24.79005         0.23647
H         38.93628        26.87329         0.41961
H         39.02225        37.84454         1.17814
H         37.78862        40.15225         0.67494
H         40.15499        28.95079         0.69594
H         41.41157        31.07412         0.99773
H         41.44734        33.54245         1.06271
H         40.25889        35.67078         1.03375
