         324
 CSIRO Nanostructure Databank - Neutral Graphene Oxide Data Set
C          1.37654         3.32805        -1.37066
C          0.19682         4.00453        -1.26691
C          1.25968         6.19102        -0.91965
C          0.12743         5.42636        -1.09849
C          1.24194         7.64401        -0.73492
C          0.03687         8.37730        -0.71851
C          1.23200        10.51015        -0.56113
C          0.03124         9.76260        -0.62274
C          1.23377        11.97521        -0.48311
C          0.01027        12.70448        -0.29859
C          1.11282        14.90927        -0.38355
C         -0.04796        14.06411        -0.14373
C          1.12676        16.37230        -0.08566
C         -0.11730        17.12247        -0.05668
C          1.17928        19.19385        -0.40249
C         -0.11193        18.47237        -0.11259
C          1.09073        20.68581        -0.14096
C          0.18312        21.40472        -1.04648
C          1.29489        23.54617        -0.63914
C          0.31818        22.76545        -1.25983
C          1.34188        24.99813        -1.06905
C          0.10359        25.77469        -0.65769
C          1.30006        27.90709        -0.33534
C          0.10399        27.11890        -0.43376
C          1.27845        29.28415        -0.00850
C          3.93608         3.22313        -1.38009
C          2.66635         4.03292        -1.40734
C          3.72363         6.28234        -0.49160
C          2.57985         5.53143        -1.06843
C          3.70832         7.68344        -0.45073
C          2.45934         8.38750        -0.64095
C          3.77684        10.52309        -0.64931
C          2.45072         9.80163        -0.57482
C          3.71138        11.98657        -0.27011
C          2.45181        12.66593        -0.39503
C          3.67085        14.83750        -0.00419
C          2.46439        14.13575        -0.44397
C          3.55862        16.26366         0.36485
C          2.32798        17.03903         0.09837
C          3.52598        19.20568         0.50395
C          2.38160        18.49072         0.19437
C          3.43927        20.65744         1.03535
C          2.20433        21.44344         0.52984
C          3.61911        23.61038         0.30231
C          2.23024        22.99493         0.42186
C          3.70944        24.98727        -0.02195
C          2.62770        25.71951        -0.66245
C          3.77298        27.93791         0.15868
C          2.59901        27.25076        -0.43165
C          3.72278        29.38437         0.33141
C          2.43577        30.01686         0.20174
C          6.35407         3.21831        -0.50639
C          4.96368         3.50998        -0.51076
C          6.05672         6.20934         0.36445
C          4.79578         5.61536         0.11876
C          6.08023         7.63585         0.36160
C          4.88803         8.37988         0.00699
C          6.16039        10.48836         0.30170
C          4.89556         9.77065         0.04006
C          6.17359        11.98560         0.17154
C          4.87729        12.69219         0.00250
C          6.10604        14.83299         0.39499
C          4.85479        14.12738         0.19596
C          6.07569        16.30471         0.26979
C          4.82001        17.03106         0.61189
C          6.00968        19.18979         0.52651
C          4.81570        18.51798         0.56369
C          6.03471        20.66840         0.62721
C          4.76049        21.42623         0.87344
C          6.08191        23.51302         0.50935
C          4.78165        22.87660         0.57881
C          6.11780        24.96289         0.80425
C          4.87187        25.74956         0.45473
C          6.16888        27.91306         0.80090
C          4.92600        27.23023         0.36491
C          6.14478        29.43318         0.95617
C          4.86898        30.09787         0.64385
C          8.62345         3.42372         0.31673
C          7.34631         4.00766         0.16677
C          8.38530         6.08355         1.07167
C          7.23272         5.40145         0.56838
C          8.17304         7.44457         1.47257
C          7.20973         8.28990         0.92571
C          8.54107        10.60696         1.32250
C          7.26599         9.78330         1.05182
C          8.51962        12.06849         0.99578
C          7.36901        12.73605         0.64079
C          8.57963        14.92933         0.59992
C          7.32957        14.18506         0.54417
C          8.61199        16.33445         0.46925
C          7.35050        17.06811         0.28473
C          8.57780        19.19417         0.22316
C          7.33971        18.49844         0.75791
C          8.47567        20.57976        -0.25664
C          7.19388        21.36438        -0.02087
C          8.50737        23.54587        -0.08671
C          7.23027        22.83106         0.14168
C          8.66290        24.93785         0.45425
C          7.43567        25.68051         0.85011
C          8.51297        27.69153        -0.04412
C          7.42890        27.13575         0.57672
C          8.54684        29.83967         0.41256
C          7.41310        30.23335         1.07429
C         11.02908         3.42766         0.69793
C          9.77712         4.11894         0.75531
C         10.96879         6.24441         1.38671
C          9.68761         5.49227         1.13439
C         11.04105         7.72669         1.16955
C         10.02924         8.54550         1.57806
C         11.02754        10.61546         0.88471
C          9.88568         9.94838         1.28442
C         11.10665        12.07377         1.04365
C          9.77289        12.83252         1.15934
C         11.04117        14.93552         0.67770
C          9.80586        14.25152         0.79234
C         11.05585        16.35665         0.52802
C          9.81774        17.06181         0.49364
C         11.06122        19.15923         0.06810
C          9.79404        18.50188         0.27058
C         11.05770        20.58267        -0.32944
C          9.76523        21.30920        -0.51972
C         11.03842        23.47370         0.08797
C          9.76327        22.81113        -0.42586
C         11.02564        24.96027        -0.17588
C          9.87908        25.67553         0.00629
C         11.00474        27.91373        -0.26453
C          9.84036        27.12256        -0.13638
C         11.03617        29.32161         0.24043
C          9.93240        30.07903         0.68512
C         13.48187         3.41236         0.63191
C         12.25751         4.07971         0.81566
C         13.51836         6.27727         0.78945
C         12.27882         5.52482         1.14797
C         13.51315         7.66650         0.58062
C         12.20853         8.35291         0.52154
C         13.51215        10.56542         0.30175
C         12.21175         9.87033         0.42118
C         13.45861        12.03058         0.14718
C         12.28723        12.79697         0.58454
C         13.51138        14.94683         0.46807
C         12.28498        14.20553         0.57236
C         13.52384        16.34639         0.45162
C         12.29569        17.06172         0.41412
C         13.54782        19.19395         0.03546
C         12.27759        18.48580         0.20041
C         13.53880        20.62214        -0.18870
C         12.32389        21.34329        -0.21477
C         13.52755        23.45358        -0.38588
C         12.31066        22.74592        -0.28731
C         13.50301        24.89746        -0.74758
C         12.21641        25.67732        -0.64579
C         13.42855        27.76121        -0.95311
C         12.24334        27.17116        -0.56633
C         13.51234        29.73100         0.00500
C         12.29330        29.92415         0.64539
C         15.93434         3.42395         0.45186
C         14.71907         4.11089         0.61355
C         15.95396         6.26659         0.46727
C         14.72681         5.55593         0.63931
C         15.94501         7.69958         0.37358
C         14.72208         8.40375         0.38181
C         15.99247        10.57399         0.18355
C         14.70849         9.86398         0.24555
C         16.04299        12.00512         0.24632
C         14.80302        12.77339         0.13850
C         16.10697        14.93414         0.46868
C         14.78075        14.19683         0.56443
C         16.07436        16.37648         0.23622
C         14.82115        17.11319         0.66136
C         16.00808        19.21141        -0.12032
C         14.76403        18.53037         0.14798
C         16.01560        20.64041        -0.24881
C         14.76677        21.34011        -0.22982
C         16.00316        23.49146        -0.10875
C         14.74355        22.75522        -0.31705
C         16.00613        24.99728        -0.21629
C         14.80042        25.64224        -0.78996
C         15.99214        27.89333        -0.45520
C         14.78307        27.14678        -0.92599
C         15.98509        29.29068        -0.02766
C         14.82415        30.00762         0.42558
C         18.38680         3.40802         0.13058
C         17.16036         4.12125         0.35319
C         18.48592         6.26345         0.46086
C         17.16907         5.54069         0.38523
C         18.38889         7.69087        -0.00069
C         17.19595         8.40477         0.14725
C         18.52311        10.53337         0.30979
C         17.19056         9.84012         0.11409
C         18.51132        12.02489         0.05883
C         17.27822        12.73735         0.19220
C         18.49798        14.86556        -0.17296
C         17.30174        14.15717         0.11942
C         18.48189        16.29731        -0.32769
C         17.22721        17.04026        -0.17188
C         18.39939        19.20050        -0.75996
C         17.19652        18.47582        -0.32483
C         18.46210        20.66261        -0.59118
C         17.24143        21.36811        -0.38684
C         18.47138        23.52489        -0.45035
C         17.27313        22.79036        -0.29389
C         18.48339        24.97975        -0.42249
C         17.27092        25.72370        -0.38089
C         18.45580        27.85828        -0.04523
C         17.19828        27.15589        -0.35487
C         18.46472        29.32863        -0.06948
C         17.21886        29.96783         0.09670
C         19.55844         4.08554        -0.17946
C         20.78324         6.18362        -0.60795
C         19.62225         5.49116        -0.16064
C         20.79871         7.54250        -0.77364
C         19.58923         8.34278        -0.54621
C         20.94203        10.58824        -0.43427
C         19.65339         9.85606        -0.44399
C         20.94874        11.92855        -0.28205
C         19.71205        12.69953        -0.15764
C         20.91427        14.85360        -0.55268
C         19.72225        14.13412        -0.30137
C         20.89758        16.23042        -0.67858
C         19.69596        16.96642        -0.57878
C         20.93230        19.22698        -0.63766
C         19.72199        18.42928        -0.84976
C         20.90737        20.58924        -0.65855
C         19.68157        21.35110        -0.68792
C         20.87778        23.53073        -0.89059
C         19.69600        22.80288        -0.66805
C         20.89640        24.92683        -0.81972
C         19.73621        25.65911        -0.55723
C         20.93654        27.95004        -0.59368
C         19.79200        27.10988        -0.24535
C         20.88423        29.31687        -0.45102
C         19.68587        30.00683        -0.13825
O         13.43585        29.11314        -1.26392
O         15.07985        26.26162        -2.07395
O          1.00529        21.04597         1.27897
O         19.28411         9.25536        -1.69878
O          8.33161        28.93841        -0.65079
O         19.21870        27.34061         1.08827
O          7.57866        10.28071         2.38235
O         15.52849        14.48828         1.78768
O         18.95764        18.76074        -2.05289
O          5.71585        21.12648         1.98476
O          1.81361        14.66805        -1.64861
O          6.67442        16.81584        -0.98352
O          9.05323         7.97730         2.40444
O          5.21006        25.34913         1.86014
O          9.03328        23.48671        -1.47305
O          2.77844         5.06704        -2.45488
O          7.48333        20.80065        -1.33687
O         15.87032        24.36831         1.09575
O         14.06343        12.53370        -1.09805
O         11.78562         5.78693         2.51998
O          6.03940        28.52054         2.13090
O         12.69517        25.14663        -1.94404
O          3.01460        26.65075        -1.72445
O          4.57483         4.33641         0.58451
O          6.59515        11.12797        -0.97864
O          8.34500        25.13631         1.87018
O          4.09403        16.48730         1.74601
O         11.91948         9.01303        -0.75669
O         10.46332        20.79124        -1.68950
O         10.56487        12.51371         2.34231
O          1.72319        23.50920         1.68940
H          1.12891        22.81096         2.05344
O          1.28501        24.96850        -2.52589
H          1.75505        25.77794        -2.83883
O          3.23151        20.48833         2.45241
H          4.11941        20.41881         2.87230
O          1.39860        19.09246        -1.84869
H          1.40134        18.14099        -2.08978
O         14.94390        17.22709         2.12728
H         15.08538        16.30755         2.46127
O         18.85448        10.36412         1.72859
H         18.15506        10.80131         2.25857
O         10.93770        23.28042         1.54013
H         11.69491        23.72891         1.97232
O          4.15524        10.49974        -2.06924
H          5.08964        10.82290        -2.11592
O         18.82340         6.34193         1.91428
H         18.79781         5.42490         2.26297
O          7.48834        18.43412         2.21261
H          7.28439        19.32011         2.58319
H          1.37993         2.22819        -1.38375
H         -0.74891         3.44327        -1.27021
H         -0.86995         5.88631        -1.05652
H         -0.92574         7.85269        -0.78897
H         -0.93856        10.27767        -0.62243
H         -0.91941        12.13716        -0.15413
H         -0.98077        14.52405         0.21255
H         -1.06419        16.57387         0.04854
H         -1.04986        19.04331        -0.05993
H         -0.54555        20.82442        -1.62836
H         -0.33936        23.25349        -1.99391
H         -0.85526        25.23745        -0.70333
H         -0.85404        27.63304        -0.25837
H          0.30432        29.79419         0.02933
H          4.11765         2.58154        -2.25502
H          2.36752        31.10145         0.36840
H          6.70991         2.32990        -1.04969
H          4.82383        31.19688         0.68367
H          8.75063         2.37369         0.01050
H          7.46913        30.96572         1.89338
H         11.01828         2.35632         0.44590
H         10.16747        30.96748         1.29271
H         13.48145         2.32453         0.46620
H         12.26403        30.61285         1.50385
H         15.93192         2.32562         0.38965
H         14.98998        30.79842         1.17318
H         18.36235         2.30952         0.10356
H         17.20255        31.04904         0.29970
H         20.44827         3.51699        -0.48978
H         21.67238         5.59316        -0.87773
H         21.68750         8.03782        -1.18710
H         21.88118        10.04270        -0.60314
H         21.90978        12.45992        -0.29678
H         21.87057        14.32773        -0.66642
H         21.83766        16.75508        -0.89582
H         21.87987        18.71315        -0.42130
H         21.85673        21.12685        -0.52715
H         21.81965        23.00637        -1.09896
H         21.85635        25.44758        -0.94124
H         21.84075        27.48292        -1.00883
H         21.78664        29.90946        -0.66010
H         19.69830        31.10402        -0.07281
