         320
 CSIRO Nanostructure Databank - Neutral Graphene Oxide Data Set
C         30.25845        31.63378         1.07594
C         30.28633        32.87889         0.82997
C         30.30275        36.12652         0.70811
C         30.50582        37.35738         0.55034
C         29.40017        42.05913        -2.45698
C         30.37256        42.31515        -1.69545
C         32.63644        28.68538         1.27604
C         31.68176        29.49161         1.37384
C         32.65245        31.68605         1.14942
C         31.44273        30.88794         1.23090
C         32.58963        33.03646         0.70555
C         31.36597        33.74507         0.62891
C         32.56869        35.87972        -0.27978
C         31.31411        35.16449         0.21210
C         32.61015        37.40479        -0.56929
C         31.52447        38.23469         0.17929
C         32.62967        40.29068        -0.47275
C         31.47034        39.64330        -0.01553
C         32.74424        41.74407        -0.91005
C         31.40417        42.53904        -0.82650
C         32.51025        44.43147         0.30325
C         31.56952        43.63528         0.05296
C         35.37506        27.41668         0.26381
C         35.19544        28.56373         1.07349
C         33.99025        28.96898         1.63469
C         35.17856        31.64529         1.06854
C         33.97538        31.16705         1.53101
C         35.11555        32.92426         0.24122
C         33.89702        33.82155         0.66940
C         35.15402        35.93867         0.01900
C         33.88720        35.09658        -0.30967
C         35.13230        37.36949        -0.52081
C         33.96847        38.06939        -0.46282
C         35.21182        40.26357        -0.52983
C         33.91233        39.55147        -0.08473
C         35.23080        41.75317        -0.20033
C         33.86602        42.41910        -0.03939
C         35.14377        44.56551         0.43307
C         33.91126        43.97935        -0.24377
C         35.44040        46.00014         0.30996
C         37.76352        27.13745         0.68209
C         36.55168        26.93642         0.09753
C         37.85358        28.62193         1.15020
C         36.47553        29.35033         1.32219
C         37.81935        31.64648         1.00429
C         36.46880        30.90148         1.27554
C         37.64802        32.89468         0.06996
C         36.42393        33.74595         0.45115
C         37.68787        35.91877         0.01904
C         36.44371        35.11786        -0.33332
C         37.67263        37.26980        -0.07667
C         36.49414        38.05609        -0.63169
C         37.75672        40.23024        -0.17189
C         36.44935        39.47500        -0.01790
C         37.69066        41.70383         0.05692
C         36.40718        42.42692        -0.12168
C         37.77042        44.65833        -0.07632
C         36.46194        43.92659        -0.37617
C         37.78097        46.18231        -0.32730
C         36.46433        46.68631         0.25454
C         40.37876        24.35561         0.01788
C         39.32794        24.98651         0.17025
C         39.96058        27.27644        -0.21324
C         39.05116        26.38395         0.65581
C         40.07120        28.61985        -0.10913
C         38.75675        29.37480         0.09435
C         40.05716        31.49046        -0.35263
C         38.91785        30.81582         0.37651
C         40.09376        32.98847        -0.05802
C         38.94410        33.68353         0.12004
C         40.21961        35.87334        -0.04584
C         38.95360        35.17151         0.44856
C         40.15612        37.36208        -0.33767
C         38.92695        38.05049         0.29309
C         40.22458        40.28500         0.24963
C         38.92024        39.54630        -0.04200
C         40.22023        41.78807        -0.18357
C         38.94191        42.48947         0.24844
C         40.22394        44.67787         0.44219
C         38.92917        43.98409         0.12232
C         40.22288        46.17326         0.62258
C         38.99678        46.89910         0.17972
C         40.38561        48.90941        -0.28807
C         39.34361        48.18333        -0.22240
C         43.16699        24.20383        -0.03827
C         41.80825        24.73564         0.34364
C         42.95064        27.01659        -0.04642
C         41.93494        26.15985        -0.27323
C         42.74931        28.55018         0.04850
C         41.42009        29.24732        -0.54993
C         42.68581        31.49965        -0.24840
C         41.40251        30.74492        -0.13167
C         42.60501        32.96795        -0.56957
C         41.35169        33.71806        -0.33084
C         42.71951        35.89237        -0.24409
C         41.38368        35.19556        -0.22673
C         42.71062        37.36591        -0.61379
C         41.49520        38.06533         0.04846
C         42.75871        40.27506        -0.00010
C         41.46015        39.56409        -0.34043
C         42.75638        41.74390        -0.05503
C         41.49518        42.49806         0.38224
C         42.78560        44.64934         0.58193
C         41.52528        44.00367        -0.01864
C         42.79483        46.11026         0.91323
C         41.53019        46.99447         0.73013
C         43.00398        48.69998        -0.12950
C         41.67489        48.08283        -0.42334
C         44.12854        24.93298         0.27006
C         45.41366        27.05363        -0.37058
C         44.29662        26.41504         0.44678
C         45.38519        28.62691        -0.23891
C         44.02216        29.29163        -0.45437
C         45.19620        31.57636        -0.07252
C         44.00592        30.78946        -0.53007
C         44.94059        32.91469         0.16114
C         43.95781        33.66002        -0.70942
C         45.32006        35.87813        -0.70527
C         44.01993        35.15535        -0.38880
C         45.29665        37.40590        -0.85916
C         44.03606        38.04933        -0.26754
C         45.30789        40.29397        -0.44839
C         44.03569        39.54154        -0.05232
C         45.32237        41.68170         0.17426
C         44.06717        42.47036         0.09576
C         45.26729        44.51826         0.78698
C         44.08731        43.90983         0.48433
C         45.37887        46.07382         0.64484
C         44.17346        46.86725         1.15959
C         43.96565        48.13577         0.38592
C         47.69314        27.36194         0.63724
C         46.78115        26.71183         0.14399
C         47.80413        28.79744         1.01324
C         46.54596        29.44517         0.30122
C         47.79470        31.58699        -0.18508
C         46.43922        30.95804         0.54654
C         47.82940        33.14726        -0.20131
C         46.79182        33.78825        -1.13518
C         47.79764        36.06235        -1.14854
C         46.51258        35.25473        -0.89793
C         47.83850        37.29477        -0.22235
C         46.56210        38.10438        -0.37859
C         47.80802        40.16713         0.05385
C         46.57314        39.47595        -0.18554
C         47.76912        41.60026         0.40964
C         46.45584        42.25299         0.65184
C         47.69369        44.23770         1.78491
C         46.43348        43.65046         1.17312
C         47.63812        45.70261         1.64026
C         46.66208        46.38717         1.34095
C         50.36457        29.05699         0.58487
C         49.05985        29.50409         0.59520
C         50.37380        31.55569        -0.19483
C         49.08045        31.04999         0.51652
C         50.39392        33.06238        -0.44088
C         49.12422        33.71482        -0.78943
C         50.36934        35.93655        -0.92714
C         49.09365        35.22151        -1.07475
C         50.35454        37.47064        -0.98739
C         49.09734        38.12839        -0.41792
C         50.32260        40.35908        -0.25914
C         49.06186        39.48942        -0.14987
C         50.30380        41.50634         0.77105
C         49.02733        42.30126         0.82858
C         50.26746        44.20172         1.69755
C         48.97530        43.43131         1.88771
C         51.56045        29.46391         0.39569
C         52.82030        31.73271        -0.11791
C         51.73941        30.96474         0.57803
C         52.72387        32.93325        -0.42005
C         51.56462        33.76542        -0.68341
C         52.72295        36.03190        -0.84528
C         51.54841        35.18988        -0.89594
C         52.78385        37.25191        -0.66760
C         51.62953        38.11701        -0.37716
C         52.76221        40.47993         0.04479
C         51.61340        39.54871        -0.02950
C         52.73341        41.68392         0.34046
C         51.70256        42.72326         0.24989
C         51.31528        43.70105         1.25294
O         43.97745        29.97583        -1.74193
O         44.21221        38.56289         1.06041
O         43.42985        42.32522        -1.25056
O         42.10936        31.15937         1.05734
O         40.10709        45.26898         1.77247
O         42.60370        45.13172         1.95976
O         38.27057        41.99032         1.44592
O         49.09540        34.22246        -2.15867
O         31.58679        35.27835        -1.21596
O         51.48848        38.53651         0.99510
O         48.52737        42.58174        -0.50860
O         33.99299        34.21062         2.01091
O         46.42529        29.14802        -1.11252
O         36.49739        30.13906         2.52960
O         46.60907        33.31694        -2.24867
O         34.02328        30.09734         2.46814
O         40.86042        26.61427        -1.02506
O         41.77197        33.27571        -1.74694
O         43.50862        35.52724         0.92705
O         46.66101        43.73123         2.65065
O         38.51989        28.68125         2.40550
H         38.07684        29.40136         2.93198
O         33.09560        41.85171        -2.29821
H         33.86127        41.24155        -2.47873
O         45.38762        33.60617         1.21167
H         45.89879        33.00218         1.80825
O         39.81225        31.33427        -1.80409
H         40.39165        32.01123        -2.23898
O         35.21830        40.27277        -1.98159
H         35.70141        39.47848        -2.32948
O         48.99766        42.77883         3.15931
H         48.67885        43.40509         3.84366
O         40.34165        40.24566         1.69483
H         39.53873        40.70876         2.04768
O         45.21633        40.45558        -1.88651
H         45.92199        41.07027        -2.17593
O         41.33937        39.67033        -1.78111
H         41.95824        39.01825        -2.20068
O         47.89417        36.74054         1.12416
H         47.83238        37.47902         1.76577
O         41.48779        42.53640         1.81186
H         41.42300        41.61337         2.15573
O         37.72352        46.37190        -1.75055
H         37.77770        47.33471        -1.93515
O         37.99364        29.26372        -1.14776
H         38.33367        29.96454        -1.75539
O         36.78668        38.18354        -2.05378
H         36.94186        37.28021        -2.40892
O         32.24177        37.59138        -1.95452
H         31.57841        36.89775        -2.18277
O         41.69759        47.44601        -1.66618
H         41.96784        48.08059        -2.36059
O         34.91069        32.51461        -1.12308
H         35.74239        32.06836        -1.42358
O         39.62631        26.36457         1.98004
H         39.36685        27.19243         2.46452
O         33.82538        39.48148         1.36560
H         34.53082        38.87114         1.68931
O         36.55852        34.00749         1.85286
H         35.63518        34.07987         2.24489
O         42.58466        37.40111        -2.06707
H         43.50157        37.37787        -2.46102
O         44.50734        26.72482         1.83111
H         43.96601        26.09567         2.35799
O         30.27143        40.19631         0.24425
H         30.25287        41.16128         0.07461
O         45.21816        26.74020        -1.72228
H         45.81769        27.30384        -2.25748
O         50.37224        37.81404        -2.39734
H         49.52545        37.49364        -2.78839
O         39.00334        37.98553         1.74695
H         38.13016        38.30401         2.08011
O         39.04699        35.23207         1.89585
H         39.08278        36.18916         2.14735
O         36.55982        34.87415        -1.75561
H         35.66330        34.59426        -2.08117
O         36.36779        39.27447         1.42345
H         36.34472        40.15879         1.85064
O         37.48781        32.40781        -1.28308
H         37.40664        33.21809        -1.85107
O         47.85110        31.12227        -1.51034
H         47.19757        31.61574        -2.06533
O         44.28476        33.50687        -2.09970
H         43.44156        33.48032        -2.60599
O         47.78137        33.70565         1.11598
H         48.31956        33.13031         1.71464
O         45.48175        46.32385        -0.75230
H         46.35105        46.01011        -1.07650
O         51.53771        43.21054        -1.02277
H         51.72797        42.49715        -1.67047
O         51.73453        31.27506         1.94891
H         52.56307        30.95136         2.36040
O         41.51295        29.17969        -1.96801
H         40.78680        29.72891        -2.34494
O         35.19510        44.15521         1.78909
H         35.86747        44.68759         2.26370
O         41.84336        24.84922         1.75263
H         40.98116        25.22616         2.07069
O         47.66609        28.94240         2.43838
H         47.02290        28.27444         2.75825
O         36.27188        44.05130        -1.77963
H         36.57039        44.94781        -2.06777
O         40.18112        41.94491        -1.60393
H         40.79597        41.29699        -2.02740
O         39.90261        37.45484        -1.75592
H         40.70592        37.15325        -2.23920
O         45.21340        37.62170        -2.30835
H         46.07394        37.30607        -2.69302
O         50.40318        30.95153        -1.48120
H         51.15918        31.31423        -1.98815
O         38.31499        32.09589         2.27666
H         37.84602        32.94402         2.49484
O         41.42583        47.73250         1.96169
H         41.12335        47.09712         2.64799
O         33.87734        44.35729        -1.57792
H         33.41707        43.66805        -2.12159
O         33.46797        42.15656         1.31683
H         34.02022        42.70898         1.91817
O         35.22999        36.29213         1.41200
H         34.67143        35.64279         1.94508
O         42.66452        28.75350         1.47172
H         43.38740        28.23903         1.90567
O         49.07843        31.52299         1.88054
H         49.97249        31.35346         2.27342
O         47.74908        36.54381        -2.52324
H         47.87489        35.74966        -3.09477
O         50.64593        40.98909         2.01024
H         50.36996        41.60841         2.72627
O         50.36339        40.89240        -1.59335
H         49.61819        41.53974        -1.66438
O         41.54353        44.19939        -1.43344
H         42.23548        43.60705        -1.81709
O         41.69866        37.91017         1.44789
H         41.00398        38.41560         1.93085
O         33.99830        34.69956        -1.68899
H         33.11456        34.37497        -1.97934
O         46.44423        31.27110         1.94440
H         47.16644        30.76153         2.39080
O         44.31353        47.10323         2.53364
H         43.51520        47.58090         2.84649
