         280
 CSIRO Nanostructure Databank - Neutral Graphene Oxide Data Set
C         30.17394        31.62282        -0.35260
C         30.34108        32.85397        -0.36410
C         30.45313        36.11267        -0.52293
C         30.46128        37.32992        -0.76775
C         30.68219        40.46618        -1.03327
C         30.60405        41.68298        -0.78044
C         32.70818        28.93322        -0.72469
C         31.56229        29.40276        -0.64507
C         32.64403        31.58974        -0.29421
C         31.31329        30.71641         0.04742
C         32.60672        32.97859         0.42943
C         31.36635        33.79293        -0.03287
C         32.53625        35.94942         0.61473
C         31.39719        35.14524        -0.05429
C         32.81168        37.28385        -0.13804
C         31.52858        38.22282        -0.14893
C         32.82808        40.32513         0.06042
C         31.84709        39.54510        -0.85803
C         32.73880        41.68637         0.32513
C         31.59317        42.47648        -0.15354
C         32.70744        44.47414         0.56089
C         31.78639        43.87120        -0.01127
C         35.53219        27.33323        -0.46520
C         35.20120        28.71515        -0.31931
C         34.03583        29.38856        -0.45675
C         35.21971        31.62934        -0.44189
C         33.97191        30.84521         0.05858
C         35.21407        33.05387         0.12509
C         33.87227        33.79064         0.00727
C         35.13931        35.88122         0.90281
C         33.84889        35.14933         0.73477
C         35.17062        37.36738         0.75330
C         34.02396        38.03100         0.39730
C         35.26365        40.23097         0.45915
C         33.92895        39.50746         0.74138
C         35.23127        41.66656         0.97116
C         33.91610        42.39864         0.97211
C         35.19352        44.44615         0.22955
C         34.02414        43.98580         1.06167
C         35.35120        45.64089        -0.46766
C         37.82278        27.19955         0.28245
C         36.49714        26.60415        -0.19717
C         37.74755        28.70152        -0.19791
C         36.44911        29.41289         0.28045
C         37.68668        31.61824         0.26071
C         36.47173        30.88167        -0.04918
C         37.68304        33.10085        -0.13077
C         36.37830        33.72716         0.31954
C         37.72146        35.81005         1.12470
C         36.42359        35.09855         0.88649
C         37.65771        37.31370         1.34074
C         36.43297        38.08134         0.98312
C         37.75607        40.19440         0.94299
C         36.49825        39.46294         0.90519
C         37.73809        41.66402         0.76545
C         36.50125        42.40051         0.80371
C         37.66508        44.41149        -0.05667
C         36.45748        43.76601         0.35502
C         37.68816        45.64067        -0.75759
C         36.38365        46.15387        -0.98860
C         40.25363        24.61641        -1.04155
C         39.21894        25.21206        -0.62222
C         40.27122        27.28748        -0.41939
C         39.04511        26.55824        -0.30405
C         40.24192        28.73415        -0.10857
C         39.05885        29.41187         0.12518
C         40.29824        31.68223         0.50283
C         39.00348        30.86504         0.44848
C         40.22827        33.10581        -0.17154
C         38.96361        33.84560         0.23203
C         40.25651        35.89496         0.74098
C         39.00147        35.14254         0.69026
C         40.28652        37.22438         1.53129
C         38.97589        38.06875         1.46205
C         40.24279        40.21521         0.89787
C         38.96123        39.50796         1.09471
C         40.22858        41.70126         0.66040
C         38.92919        42.37890         0.64357
C         40.19659        44.40850        -0.15995
C         38.94453        43.88810         0.53541
C         40.21100        45.52969        -0.94780
C         38.92505        46.20803        -1.22398
C         40.19172        48.05051        -2.14957
C         39.11595        47.39950        -1.88701
C         42.79541        24.68810        -1.50998
C         41.52667        25.22114        -1.08721
C         42.76532        27.46728        -0.90557
C         41.48341        26.63557        -0.77119
C         42.71753        28.75433        -0.11322
C         41.52352        29.41705         0.02499
C         42.75922        31.68077        -0.07946
C         41.49108        30.90690        -0.01491
C         42.74274        33.16433         0.09834
C         41.51823        33.85175         0.12916
C         42.71077        36.03872         0.05249
C         41.45086        35.26408         0.40409
C         42.77067        37.44405         0.64867
C         41.57063        38.05574         1.29680
C         42.79832        40.35391         1.15965
C         41.52710        39.56922         1.33866
C         42.75892        41.79570         0.65216
C         41.44536        42.52252         1.10641
C         42.71998        44.65213         0.28542
C         41.43591        43.93276         0.50764
C         42.86836        45.47677        -0.99269
C         41.49653        46.05539        -1.60725
C         42.75385        48.21403        -1.91981
C         41.46764        47.62979        -1.89349
C         43.80283        25.38367        -1.09589
C         45.27281        27.11951         0.08312
C         44.06747        26.65740        -0.69714
C         45.30707        28.69508         0.29702
C         43.98638        29.42919         0.26986
C         45.27673        31.67678         0.42494
C         43.98329        30.93470         0.33617
C         45.24786        33.14623         0.17576
C         44.01592        33.82224         0.15975
C         45.24453        36.04048        -0.06371
C         44.01651        35.30451         0.46151
C         45.20627        37.53079         0.02151
C         43.89035        38.32735         0.09802
C         45.23711        40.38453         0.63013
C         44.06644        39.67123         0.77718
C         45.35241        41.80901         1.17555
C         44.01869        42.55889         1.07265
C         45.30922        44.83692         0.78355
C         44.00497        44.03094         0.82225
C         45.18879        46.06270        -0.15319
C         44.05422        46.47194        -0.78734
C         43.79492        47.67816        -1.47443
C         47.64725        27.46482        -0.34448
C         46.61044        26.82001        -0.53114
C         47.86639        28.86415        -0.09763
C         46.56525        29.52679         0.13703
C         47.75543        31.71447         0.14422
C         46.52662        30.90339         0.24063
C         47.69369        33.15712         0.47976
C         46.49302        33.83856         0.26472
C         47.65830        35.93973         0.91522
C         46.60170        35.32398        -0.02394
C         47.68927        37.47282         0.84038
C         46.43801        38.22843         0.49727
C         47.71672        40.32477         0.35365
C         46.48206        39.69463         0.33908
C         47.69963        41.79461         0.11519
C         46.52639        42.60394         0.57471
C         47.86753        44.69443         0.21761
C         46.54733        43.96216         0.47333
C         47.64136        46.11098        -0.13466
C         46.50560        46.58874        -0.26477
C         50.42647        29.12460         0.00155
C         49.05734        29.53413         0.00522
C         50.26462        31.71725         0.69718
C         49.09045        31.02776         0.09724
C         50.12827        33.06103         1.01846
C         48.94233        33.85328         0.68732
C         50.14350        36.03373         0.29187
C         48.97600        35.26251         0.58576
C         50.18768        37.42381         0.59453
C         48.98002        38.19821         0.67199
C         50.25239        40.38848         0.44694
C         48.95146        39.58567         0.44862
C         50.20148        41.55283        -0.57616
C         48.95856        42.43833        -0.35768
C         50.32308        44.35726        -0.86759
C         49.09241        43.93895        -0.17647
C         51.51591        29.66148         0.24138
C         52.24324        31.97431        -0.57338
C         51.69514        31.12623         0.56538
C         52.12900        33.11205        -1.04154
C         51.21434        34.22050        -1.12416
C         52.48267        36.08855         0.05458
C         51.31196        35.34328        -0.30388
C         52.61745        37.25062         0.45552
C         51.52258        38.18783         0.87338
C         52.38770        40.15611        -0.62254
C         51.47660        39.49798         0.16643
C         52.57167        41.29144        -1.19263
C         51.62537        42.34944        -0.57859
C         51.27482        43.64930        -1.23612
O         40.40835        40.77463        -0.48380
O         47.93170        42.10867        -1.34242
O         48.52575        31.60067        -1.15077
O         42.09974        31.27363        -1.32758
O         37.07116        35.09373         2.21997
O         34.37173        35.31752         2.06437
O         38.18904        31.23377         1.60568
O         42.22348        40.14596         2.48106
O         44.47678        31.38397         1.62961
O         41.87658        45.06429         1.38623
O         44.57450        28.93120         1.53593
O         42.67292        37.51301         2.08475
O         46.81079        37.96407         1.90931
O         38.15659        37.76621         2.63978
O         48.90788        44.39512         1.17901
O         34.44160        41.85275         2.22599
O         45.21146        36.84599        -1.27967
O         33.77084        34.08082        -1.35174
O         43.80424        43.48182         2.17571
O         41.43547        45.58217        -3.02503
O         42.82360        41.77844        -0.78447
H         42.02846        41.29349        -1.12048
O         40.61768        31.90381         1.89062
H         39.76988        31.91959         2.39515
O         42.63427        36.10441        -1.38459
H         43.21607        36.83852        -1.70376
O         40.15769        32.94596        -1.61323
H         40.97509        32.46544        -1.90935
O         50.07632        33.99335        -1.80821
H         49.96774        33.04706        -2.04901
O         39.01826        44.40715         1.90384
H         39.16350        45.37577         1.86081
O         32.06086        36.23124         1.94024
H         32.82234        36.08600         2.55840
O         47.19676        35.41830        -1.33860
H         46.50515        35.25426        -2.01372
O         37.66288        28.72554        -1.63724
H         38.29344        28.07285        -2.00918
O         33.15278        36.86225        -1.46245
H         33.14760        37.63730        -2.06862
O         35.34357        40.32470        -0.99346
H         36.23746        40.65377        -1.22939
O         34.09611        30.75900         1.49554
H         33.21476        30.51394         1.86384
O         51.56912        38.44223         2.28693
H         51.59776        37.58243         2.75772
O         52.07347        42.60392         0.71063
H         52.77266        43.28782         0.70074
O         32.46898        39.31860        -2.11717
H         32.70499        40.17960        -2.52036
O         31.15093        38.58058         1.15255
H         31.18313        37.77164         1.72501
O         50.09775        40.95200        -1.86435
H         49.24303        41.23291        -2.26934
O         45.21935        26.49121         1.35731
H         44.89637        27.15381         2.01210
O         40.40677        36.73930         2.88277
H         39.50792        36.76853         3.29410
O         50.39589        40.93467         1.76463
H         50.68082        40.21028         2.36970
O         45.67406        41.65914         2.57496
H         45.17670        42.34328         3.07684
O         37.92450        27.11697         1.68051
H         37.23360        27.70099         2.07828
O         52.44916        31.35779         1.73244
H         53.35160        30.99483         1.61592
O         34.25714        44.37866         2.39901
H         34.44497        43.57003         2.93134
O         44.18051        35.39667         1.89724
H         43.32732        35.19647         2.33889
O         41.34451        42.60013         2.52326
H         41.82493        43.40606         2.81932
O         32.58385        32.86190         1.84482
H         31.79276        32.33927         2.10490
O         33.63709        39.42188         2.14813
H         33.66829        40.32585         2.54541
O         45.52100        45.40906         2.08657
H         45.08518        44.82741         2.74928
O         40.89401        44.22769        -3.04996
H         40.07111        44.33985        -3.58615
O         37.56405        33.11763        -1.58804
H         38.47344        33.05117        -1.97866
O         36.35895        29.28186         1.71911
H         35.57559        29.82412         2.00343
O         32.58194        31.81137        -1.68419
H         33.08694        32.65359        -1.90151
O         31.25541        30.48715         1.44551
H         30.46125        29.94733         1.64480
O         47.36567        35.55200         2.26567
H         46.78305        36.24596         2.65762
O         51.10183        33.69350         1.70714
H         51.82038        33.04937         1.92407
O         43.40245        44.51917        -1.91557
H         43.08568        44.74649        -2.82119
O         42.80878        27.92922        -2.29533
H         42.81725        27.13321        -2.87048
O         43.49145        38.66713        -1.26191
H         44.22749        39.14885        -1.69593
O         35.18287        31.68914        -1.88128
H         35.86642        32.34325        -2.16408
