         324
 CSIRO Nanostructure Databank - Neutral Graphene Oxide Data Set
C          1.18116         3.42799        -0.63547
C          0.06857         4.12851        -1.00328
C          1.07666         6.31754        -0.54683
C         -0.00591         5.55959        -0.93423
C          1.11824         7.77900        -0.59844
C         -0.06501         8.54777        -0.48972
C          1.22898        10.61971        -0.54269
C         -0.00438         9.92547        -0.39835
C          1.30727        12.04525        -0.43534
C          0.22309        12.79878         0.13811
C          1.14651        14.84115        -0.88166
C          0.17611        14.14912         0.03462
C          1.17968        16.33459        -0.69936
C         -0.03944        17.01300        -0.60181
C          1.09591        19.16700        -0.58626
C         -0.08586        18.39877        -0.51513
C          1.01195        20.62591        -0.46006
C         -0.14763        21.31228        -0.12976
C          0.93075        23.51417         0.19863
C         -0.19266        22.70161         0.19557
C          0.97433        24.88538         0.70284
C         -0.11379        25.62094         1.15070
C          1.14011        27.74664         1.40926
C         -0.04406        27.02362         1.43024
C          1.26430        29.15632         1.66028
C          3.62500         3.45984         0.13529
C          2.30630         4.09956         0.02043
C          3.53329         6.39140         0.12204
C          2.24469         5.63575         0.03986
C          3.61423         7.66629        -0.66666
C          2.35832         8.45709        -0.72860
C          3.64420        10.57082        -1.18373
C          2.40216         9.86073        -0.81694
C          3.68966        12.02911        -1.08650
C          2.52181        12.75031        -0.76329
C          3.67063        14.95528        -1.01657
C          2.50376        14.18588        -0.81812
C          3.65330        16.36526        -0.94629
C          2.39512        17.06583        -0.78410
C          3.61282        19.23323        -0.85491
C          2.33342        18.48977        -0.77139
C          3.57828        20.72506        -0.67233
C          2.23175        21.41892        -0.66089
C          3.44370        23.45000         0.15690
C          2.17066        22.89995        -0.34937
C          3.53589        24.91007         0.24703
C          2.24584        25.64204         0.52956
C          3.68811        27.73947         1.10079
C          2.38796        26.99580         1.16115
C          3.72116        29.20838         1.29593
C          2.46078        29.83744         1.60500
C          6.03939         3.50424         0.55353
C          4.79253         4.16529         0.38817
C          6.11019         6.34183         0.17364
C          4.80741         5.65235         0.37246
C          6.15833         7.72827        -0.18365
C          4.95598         8.33656        -0.79823
C          6.23872        10.53693        -0.92453
C          4.98944         9.78964        -1.16545
C          6.28387        11.97557        -1.28609
C          4.93072        12.73514        -1.42052
C          6.25280        14.96361        -1.15008
C          4.93766        14.24006        -1.35096
C          6.18493        16.39555        -0.78041
C          4.93666        17.15481        -1.16864
C          6.02561        19.23560        -0.16879
C          4.88256        18.54327        -0.56384
C          5.98409        20.67443         0.17423
C          4.71718        21.31206         0.06497
C          6.28955        23.64039         0.89855
C          4.41927        22.59244         0.61709
C          6.17407        24.95479         0.47165
C          4.87535        25.63052         0.28624
C          6.19158        27.80848         0.63430
C          4.89960        27.12090         0.48735
C          6.19086        29.19996         0.91158
C          4.93260        29.86937         1.21153
C          8.47498         3.53375         0.88339
C          7.25327         4.21568         0.69504
C          8.48707         6.43613         0.89131
C          7.26183         5.65433         0.52485
C          8.58380         7.79643         0.23477
C          7.37839         8.44951        -0.18066
C          8.67757        10.58289        -0.63820
C          7.38426         9.85809        -0.55055
C          8.68461        12.06587        -0.59503
C          7.49448        12.76315        -0.91486
C          8.64516        14.87109        -0.45017
C          7.47983        14.17806        -0.85480
C          8.56574        16.31331        -0.12534
C          7.30705        17.07260        -0.36314
C          8.48294        19.18404         0.14691
C          7.27526        18.49620        -0.08120
C          8.47941        20.61548         0.50548
C          7.22359        21.37558         0.49055
C          8.61090        23.51819         0.33700
C          7.39024        22.79411         0.62388
C          8.57817        24.93919         0.15719
C          7.37672        25.66589         0.17832
C          8.56934        27.84059         0.07304
C          7.36779        27.12160         0.23209
C          8.60726        29.22690         0.41699
C          7.42224        29.88339         0.83504
C         10.95469         3.46589         0.91132
C          9.72784         4.21825         0.89140
C         11.00120         6.34943         0.91975
C          9.74486         5.62314         0.81635
C         11.03029         7.78541         0.58795
C          9.83216         8.43986         0.20626
C         11.14077        10.62613         0.05844
C          9.93715         9.83649        -0.27812
C         11.11540        12.01129        -0.06694
C          9.89481        12.75747        -0.31834
C         11.09951        14.95590        -0.03506
C          9.87787        14.19355        -0.25647
C         11.16376        16.34121        -0.15373
C          9.87914        17.10064        -0.06182
C         10.80989        19.40153        -0.51954
C          9.72819        18.57085        -0.14841
C         11.04065        20.70531        -0.09988
C          9.85395        21.40168         0.43531
C         11.07400        23.52345        -0.03436
C          9.83307        22.83884         0.19945
C         11.09633        24.92713        -0.16778
C          9.80384        25.62681        -0.28831
C         11.05737        27.90561        -0.66414
C          9.75853        27.14096        -0.44541
C         11.03987        29.30329        -0.07073
C          9.85412        29.92259         0.33307
C         13.38579         3.18798         0.80245
C         12.21871         4.02622         0.73273
C         13.48203         6.33024         0.41845
C         12.30457         5.52457         0.78656
C         13.50010         7.73646         0.63180
C         12.27347         8.47992         0.59551
C         13.59094        10.55348         0.52485
C         12.33526         9.89648         0.41051
C         13.65961        12.02758         0.36404
C         12.38643        12.75772         0.07989
C         13.61006        14.93184         0.69574
C         12.30561        14.21063         0.40800
C         13.64862        16.35389         0.34163
C         12.47194        17.00472        -0.08959
C         13.71855        19.17143        -0.12216
C         12.65506        18.33633        -0.52052
C         13.62084        20.64907        -0.07735
C         12.33017        21.37300        -0.11136
C         13.51229        23.55120         0.36907
C         12.30813        22.77557         0.02373
C         13.52503        25.01320         0.18197
C         12.32938        25.68029        -0.10737
C         13.48353        27.84746        -0.26614
C         12.31265        27.12876        -0.26481
C         13.46025        29.29857        -0.42608
C         12.25373        29.99989        -0.14913
C         15.95687         3.22038         0.53897
C         14.63411         3.56937         0.26377
C         15.93412         6.29038         0.12705
C         14.64942         5.73960        -0.05975
C         15.97788         7.67256         0.43127
C         14.75710         8.40510         0.58247
C         16.09159        10.50686         0.69206
C         14.77887         9.82543         0.66720
C         16.14124        11.99003         0.83178
C         14.81801        12.73686         1.07408
C         16.09909        14.86575         0.59194
C         14.89658        14.20306         0.70960
C         16.13605        16.32519         0.50698
C         14.88268        17.04865         0.34695
C         16.13798        19.18796         0.49695
C         14.88257        18.46207         0.25745
C         16.09653        20.67185         0.37308
C         14.79368        21.35669         0.16622
C         16.13479        23.53505         0.49422
C         14.81583        22.79073         0.52824
C         16.13375        25.03485         0.35203
C         14.79756        25.74994         0.36208
C         16.03010        27.87549        -0.46094
C         14.78971        27.22293         0.04064
C         15.86361        29.21928        -0.96098
C         14.63845        29.93983        -0.77541
C         18.34190         3.33089         0.01728
C         17.09707         4.01548         0.12355
C         18.37197         6.11569        -0.08938
C         17.12154         5.45130        -0.00604
C         18.46497         7.56886         0.17019
C         17.23039         8.37976         0.28742
C         18.45288        10.45214        -0.39559
C         17.27426         9.74755         0.24057
C         18.47584        11.98243        -0.21330
C         17.31754        12.72599         0.31090
C         18.61411        14.81149         0.38472
C         17.35099        14.11042         0.41952
C         18.60818        16.25270         0.69558
C         17.34872        17.01002         0.52784
C         18.60361        19.14855         0.24627
C         17.41656        18.44494         0.39308
C         18.59094        20.59195        -0.25210
C         17.36186        21.41061         0.12244
C         18.66622        23.51424         0.41292
C         17.37080        22.76841         0.16995
C         18.63714        25.03032         0.12823
C         17.34527        25.69283        -0.35214
C         18.40106        28.01334        -0.97335
C         17.27661        27.24202        -0.47282
C         18.17079        29.22559        -1.71077
C         16.89446        29.82013        -1.67909
C         19.52700         3.98510        -0.26360
C         20.79767         6.11316        -0.60246
C         19.57388         5.40053        -0.29295
C         20.88977         7.46830        -0.56635
C         19.78520         8.28254        -0.02779
C         20.96469        10.49366        -0.02664
C         19.77821         9.76803        -0.12781
C         21.02549        11.88492        -0.02454
C         19.82669        12.71520        -0.16330
C         21.06409        14.87985         0.18163
C         19.82666        14.14126         0.23755
C         21.11006        16.23670         0.26210
C         19.92293        17.01706         0.63183
C         21.04535        19.21211         0.35088
C         19.87927        18.48348         0.37298
C         21.03326        20.63915         0.21681
C         19.88393        21.33552         0.00354
C         21.13120        23.52567         0.20959
C         19.87235        22.83020        -0.25753
C         21.06650        24.81217         0.58309
C         19.85356        25.60081         0.35162
C         20.81560        28.45792        -1.30618
C         19.77566        27.75387        -0.70353
C         20.54001        29.50199        -2.20941
C         19.23262        29.90756        -2.37324
O          9.30782        20.91449         1.68619
O          9.16857        16.63534         1.15777
O         20.17510        26.94437         0.34773
O          5.67997        12.25508        -2.57325
O          4.09391         6.38219         1.46353
O         11.81165         5.97946         2.08631
O         16.10711        20.03186         1.71837
O          3.82898        20.15968        -1.98871
O         13.37612        12.48465        -0.99742
O         19.35956         7.83914         1.32414
O          9.53931        10.00984        -1.68841
O         14.81090        26.75689         1.43670
O          2.72158        25.51453        -0.83193
O          3.29587        26.99772         2.32653
O          4.38709         7.50839        -1.89260
O          1.92913         4.86966         1.22531
O          9.52011        26.27461        -1.60676
O          2.12260        22.43360        -1.72438
O          4.30787        10.06524        -2.39929
O         16.38503        24.42377         1.64567
O          4.87338        26.55409        -0.85919
O         12.68022        14.56167         1.77607
O         16.46380        11.16084         2.01259
O          5.24203        23.08946         1.63265
O         14.02772        23.11956         1.70337
O         14.51972         4.54443        -0.75486
O         11.72179        18.83908        -1.42006
O         19.05371        12.57300        -1.42702
O          5.66524        14.77967        -2.50354
O         19.34008        16.61719         1.91805
O         19.74064        23.00938        -1.70522
H         20.58180        22.71945        -2.11777
O         18.49466        20.46605        -1.72131
H         18.71073        21.35918        -2.08548
O          0.64923        14.60882        -2.25413
H          1.28121        15.03675        -2.87059
O         18.22270        10.21511        -1.83102
H         18.65834        10.96700        -2.30219
O          8.32107         6.73582         2.34358
H          8.22256         5.87828         2.81085
O         14.51453        12.68925         2.48365
H         15.16649        12.07798         2.90432
O         17.17353        25.26325        -1.74472
H         17.99511        25.47738        -2.23563
O         11.18194        28.13733        -2.09784
H         10.71162        27.39184        -2.54119
O          5.03827        17.39883        -2.61374
H          5.22026        16.51957        -3.02924
O         18.89756        23.36557         1.83683
H         18.10171        23.72916         2.29309
H          1.25794         2.35173        -0.84884
H         -0.77879         3.59420        -1.45620
H         -0.90836         6.05080        -1.32494
H         -1.03477         8.03861        -0.40409
H         -0.93152        10.49414        -0.24751
H         -0.54501        12.26662         0.71797
H         -0.60970        14.72187         0.54690
H         -0.97899        16.44386        -0.59640
H         -1.06174        18.89058        -0.41642
H         -1.09276        20.76163        -0.02404
H         -1.15856        23.10901         0.52905
H         -1.09916        25.13818         1.22861
H         -0.98480        27.54537         1.66093
H          0.34821        29.71569         1.90390
H          3.67752         2.36463         0.03448
H          2.46439        30.91901         1.80841
H          6.05769         2.40461         0.58578
H          4.95993        30.95885         1.36837
H          8.46792         2.43690         0.96174
H          7.46275        30.95936         1.06081
H         10.87261         2.37026         0.97334
H          9.88626        30.98080         0.63508
H         13.28737         2.22360         1.32437
H         12.28969        31.08241         0.04492
H         16.16969         2.30525         1.11289
H         14.63199        31.01882        -0.98792
H         18.34264         2.23564         0.11691
H         16.73262        30.79059        -2.16923
H         20.45361         3.41074        -0.40609
H         21.65709         5.51847        -0.94731
H         21.79973         7.97199        -0.92390
H         21.90321         9.93922         0.12591
H         21.98517        12.36739         0.20372
H         21.98454        14.33614        -0.07325
H         22.04818        16.75795         0.02478
H         22.01456        18.72005         0.50647
H         22.00054        21.14914         0.32060
H         22.09396        22.99784         0.23961
H         21.96293        25.35550         0.91435
H         21.85061        28.21372        -1.03490
H         21.36252        30.03423        -2.70547
H         18.99127        30.79520        -2.97410
