         640
 CSIRO Nanostructure Databank - Neutral Graphene Oxide Data Set
C         23.18682        27.16156         0.18171
C         23.13541        28.52123        -0.10486
C         22.97886        31.52134         0.08194
C         22.97081        32.86937         0.21997
C         22.94528        35.85290         0.24273
C         22.95278        37.23257         0.33855
C         22.94575        40.15359         0.46049
C         22.92049        41.52893         0.37122
C         22.90649        44.44447        -0.04953
C         22.92345        45.80769        -0.24311
C         25.67826        24.58030         1.27283
C         24.48857        25.16922         0.91374
C         25.53194        27.39964         0.79681
C         24.38878        26.57840         0.63748
C         25.50325        28.76365         0.41785
C         24.27644        29.33420         0.00128
C         25.44859        31.56588        -0.20696
C         24.18712        30.78006        -0.44258
C         25.37774        32.97648        -0.14787
C         24.16672        33.67107         0.03741
C         25.36372        35.87075         0.14048
C         24.15237        35.11767         0.13854
C         25.38101        37.26042         0.30160
C         24.16066        37.97535         0.39377
C         25.39002        40.15271         0.48151
C         24.16483        39.42711         0.47507
C         25.36163        41.58948         0.43160
C         24.12272        42.28449         0.32386
C         25.33664        44.44225         0.25981
C         24.10866        43.71854         0.18333
C         25.33833        45.85252         0.14267
C         24.14147        46.54141        -0.15546
C         25.39136        48.63013        -0.48540
C         24.18384        47.94117        -0.43735
C         28.24235        23.38909         2.09231
C         28.12787        24.77635         1.79343
C         26.86504        25.34464         1.47746
C         28.04369        27.61734         1.27845
C         26.75163        26.80283         1.35931
C         27.96505        28.95979         0.67772
C         26.75092        29.52719         0.36189
C         27.91334        31.61912        -0.30621
C         26.70479        30.91862        -0.07031
C         27.77711        33.00406        -0.91188
C         26.66255        33.70659        -0.17344
C         27.79230        35.98446        -0.59383
C         26.66020        35.18151        -0.03159
C         27.89707        37.36575        -0.14026
C         26.69780        37.95939         0.58338
C         27.85828        40.14246         0.32797
C         26.64758        39.45729         0.40577
C         27.86962        41.58806         0.73951
C         26.58536        42.33162         0.46823
C         27.83415        44.47257         0.35602
C         26.57796        43.72336         0.41748
C         27.84099        45.84468         0.23202
C         26.58443        46.64236         0.46572
C         27.85730        48.75171        -0.15618
C         26.61313        48.03043        -0.13890
C         27.89918        50.17465        -0.32473
C         30.68866        23.42472         2.05026
C         29.46906        22.74467         2.18975
C         30.67316        24.93089         2.05211
C         29.34464        25.55560         1.67496
C         30.53344        27.59915         0.90646
C         29.32341        26.89111         1.29989
C         30.48643        28.94639         0.52348
C         29.23406        29.77179         0.75064
C         30.36970        31.67220        -0.45234
C         29.17552        31.03852        -0.06841
C         30.27154        32.97275        -1.24181
C         29.06260        33.77757        -0.87205
C         30.34358        35.95940        -0.94220
C         29.07026        35.21166        -1.01157
C         30.27992        37.47662        -1.00076
C         29.06724        38.08773        -0.30630
C         30.33379        40.21246        -0.01637
C         29.09435        39.48191         0.03340
C         30.34765        41.61069         0.19301
C         29.10591        42.33413         0.32892
C         30.33596        44.44296         0.51672
C         29.07653        43.71147         0.31740
C         30.33192        45.93401         0.45273
C         29.10725        46.57266        -0.15308
C         30.32492        48.76823         0.09473
C         29.08567        48.07122         0.01485
C         30.34174        50.19111        -0.14190
C         29.09129        50.85087        -0.35224
C         33.19221        20.64078         2.24398
C         32.02250        21.32392         2.22385
C         33.13728        23.48000         1.77700
C         31.95279        22.76103         2.06289
C         33.08650        24.83595         1.30854
C         31.85313        25.53694         1.32534
C         32.97165        27.53430         0.44107
C         31.78195        26.87397         0.87868
C         32.90712        28.90786         0.06107
C         31.66808        29.61808         0.09228
C         32.83630        31.64967        -0.68909
C         31.61803        30.99099        -0.33709
C         32.83828        33.07849        -1.08861
C         31.55425        33.80988        -1.26773
C         32.80982        35.98805        -0.87953
C         31.53832        35.28542        -1.01284
C         32.80039        37.41897        -0.67069
C         31.58243        38.13443        -0.59200
C         32.81863        40.21569        -0.12778
C         31.58023        39.51198        -0.25359
C         32.82898        41.63087         0.08798
C         31.59433        42.33200         0.20591
C         32.81931        44.46028         0.48588
C         31.60872        43.73243         0.40080
C         32.81751        45.91604         0.53147
C         31.62150        46.64571         0.36587
C         32.76425        48.81844         0.63889
C         31.56006        48.06265         0.30249
C         32.79740        50.33627         0.30537
C         31.56911        50.90858        -0.25928
C         32.85519        52.87175        -0.92760
C         31.65911        52.17865        -0.87753
C         35.78138        19.21189         2.17327
C         35.73151        20.59838         1.94497
C         34.48463        21.33568         2.24014
C         35.64067        23.44090         1.30012
C         34.45010        22.83726         1.92752
C         35.54832        24.77684         0.83343
C         34.28582        25.47824         0.85652
C         35.41441        27.52267         0.03761
C         34.21938        26.83527         0.43175
C         35.34427        28.89186        -0.27294
C         34.11365        29.59196        -0.27297
C         35.29291        31.70667        -0.90003
C         34.06243        30.98994        -0.59159
C         35.27727        33.15778        -0.97202
C         34.08205        33.85281        -0.90913
C         35.29152        35.99783        -0.79840
C         34.03520        35.28932        -0.87486
C         35.28985        37.41414        -0.60020
C         34.04776        38.11157        -0.48850
C         35.30114        40.21661        -0.12175
C         34.05706        39.51430        -0.24542
C         35.31802        41.63533         0.08385
C         34.05521        42.35342         0.20296
C         35.33636        44.44341         0.77522
C         34.04142        43.74255         0.43776
C         35.29359        45.94480         0.59431
C         34.07638        46.61621         0.60234
C         35.36554        48.84221         0.55723
C         34.05860        48.08245         0.77031
C         35.34318        50.29721         0.22336
C         34.09481        51.00656         0.07806
C         35.29472        53.14139        -0.35689
C         34.07073        52.31991        -0.43489
C         35.44035        54.44187        -1.03008
C         38.15135        19.15550         1.63841
C         36.96446        18.50574         2.03576
C         38.10343        20.55352         1.33894
C         36.89004        21.28974         1.51280
C         38.01620        23.33605         0.64355
C         36.84748        22.70111         1.17650
C         37.96843        24.72172         0.26652
C         36.72988        25.43222         0.36000
C         37.84190        27.43409        -0.51088
C         36.67766        26.80647        -0.02038
C         37.73115        28.81157        -1.02897
C         36.62641        29.65321        -0.44245
C         37.67922        31.74536        -1.47845
C         36.47144        31.01843        -1.05112
C         37.71197        33.19564        -1.27401
C         36.53135        33.87352        -1.05095
C         37.76812        36.00913        -0.89962
C         36.51558        35.31237        -0.93109
C         37.76854        37.41060        -0.63390
C         36.52834        38.10821        -0.49515
C         37.77711        40.21620        -0.17628
C         36.53276        39.52007        -0.26448
C         37.78153        41.63262         0.04021
C         36.53606        42.32617         0.12176
C         37.79214        44.52478         0.36922
C         36.50428        43.83207         0.00755
C         37.80296        45.90282         0.41926
C         36.53717        46.65321         0.43545
C         37.81377        48.70028        -0.10534
C         36.55531        48.03039         0.26608
C         37.81431        50.20636        -0.23017
C         36.55230        50.94167        -0.00744
C         37.89760        53.06882        -0.36624
C         36.61552        52.40188        -0.06334
C         37.90376        54.43681        -0.76004
C         36.64459        55.05501        -1.14153
C         40.69773        16.34440         1.75643
C         39.50412        17.06241         1.90283
C         40.55756        19.12190         1.09022
C         39.40486        18.43388         1.56376
C         40.46326        20.45224         0.66991
C         39.26872        21.21009         0.83188
C         40.41029        23.26561        -0.00289
C         39.23048        22.60104         0.48121
C         40.38061        24.66142        -0.33353
C         39.13960        25.37876        -0.22164
C         40.26853        27.43359        -1.07330
C         39.08056        26.74895        -0.62966
C         40.25591        28.82032        -1.38911
C         38.96302        29.51379        -1.51368
C         40.24000        31.74560        -1.49067
C         38.96597        31.00870        -1.67904
C         40.23839        33.13544        -1.40383
C         38.97018        33.92535        -1.65946
C         40.22670        35.99052        -0.96729
C         38.99486        35.32616        -1.10893
C         40.23806        37.39419        -0.68756
C         39.01124        38.10121        -0.54225
C         40.24583        40.21410        -0.19877
C         39.01086        39.51676        -0.30540
C         40.24052        41.62457         0.07068
C         39.01731        42.31516         0.19385
C         40.29407        44.48067         0.49820
C         39.01143        43.72515         0.73429
C         40.29508        45.89395         0.56506
C         39.05533        46.63007         0.49405
C         40.26804        48.78306         0.31904
C         39.07906        48.02469         0.24568
C         40.27019        50.19800         0.19435
C         39.09064        50.92278        -0.03601
C         40.35308        53.05533        -0.22314
C         39.10014        52.35301        -0.17494
C         40.36233        54.45436        -0.53526
C         39.13655        55.12716        -0.86984
C         40.38110        57.19249        -1.31973
C         39.22752        56.48829        -1.36522
C         43.10440        16.26741         1.18007
C         41.87582        16.96770         1.34630
C         42.99643        18.96257         0.33476
C         41.90911        18.46660         1.24782
C         42.86579        20.29622        -0.26832
C         41.58037        21.07265        -0.07303
C         42.79189        23.17019        -0.65074
C         41.61089        22.53659        -0.21527
C         42.78032        24.57881        -0.92982
C         41.55411        25.31058        -0.79698
C         42.68971        27.38468        -1.52447
C         41.53299        26.72681        -1.12627
C         42.68528        28.82996        -1.95290
C         41.44003        29.56502        -1.55495
C         42.69939        31.69875        -1.45857
C         41.45961        30.99526        -1.50905
C         42.70251        33.11831        -1.30897
C         41.47317        33.84530        -1.27056
C         42.70930        35.96353        -1.01556
C         41.47518        35.26549        -1.09580
C         42.71047        37.38722        -0.75221
C         41.48812        38.08939        -0.58204
C         42.71040        40.20013        -0.17069
C         41.48111        39.50206        -0.31502
C         42.70775        41.62234         0.05393
C         41.49375        42.32671         0.18855
C         42.73402        44.48005         0.32105
C         41.50203        43.76285         0.36326
C         42.72708        45.90550         0.41817
C         41.53319        46.60623         0.54949
C         42.78685        48.82180         0.44360
C         41.51633        48.09517         0.82438
C         42.79865        50.21172         0.38722
C         41.51471        50.97175         0.59456
C         42.79648        53.04400        -0.10892
C         41.56431        52.37579         0.03853
C         42.81496        54.44753        -0.41404
C         41.59429        55.14858        -0.55548
C         42.88529        57.21252        -1.12382
C         41.59205        56.65612        -0.60643
C         44.23497        16.89596         0.70905
C         45.34581        18.89652        -0.38898
C         44.18579        18.25855         0.22364
C         45.30651        20.29100        -0.70415
C         44.08468        21.03082        -0.60343
C         45.18720        23.11808        -1.25176
C         44.01577        22.42657        -0.84360
C         45.19254        24.51858        -1.44328
C         43.97059        25.22508        -1.33816
C         45.21243        27.39749        -1.57596
C         43.94015        26.62831        -1.87109
C         45.20063        28.81615        -1.57221
C         43.96520        29.56660        -1.64365
C         45.17572        31.71409        -1.45894
C         43.94610        30.96647        -1.52220
C         45.18558        33.09812        -1.33107
C         43.94156        33.84366        -1.25672
C         45.21485        36.02028        -1.38159
C         43.93426        35.24699        -1.16870
C         45.19594        37.40387        -0.75768
C         43.95410        38.08652        -0.59059
C         45.17753        40.18389        -0.13468
C         43.94164        39.48356        -0.28043
C         45.17680        41.60994         0.09183
C         43.95932        42.33131         0.13935
C         45.21485        44.45782         0.34926
C         43.97206        43.75834         0.24780
C         45.25471        45.89044         0.43230
C         43.99925        46.63892         0.07683
C         45.21927        48.78667         0.52398
C         44.01339        48.10454         0.42136
C         45.26224        50.21289         0.40076
C         44.02796        50.92078         0.25388
C         45.27585        53.01818        -0.11063
C         44.04508        52.33455         0.03618
C         45.29112        54.42458        -0.41649
C         44.06378        55.12703        -0.59830
C         44.03262        56.49826        -1.05994
C         47.68629        18.84375        -1.08323
C         46.54459        18.19647        -0.63304
C         47.69461        20.23750        -1.33791
C         46.47509        20.93418        -1.19949
C         47.67635        23.10622        -1.87146
C         46.37710        22.34081        -1.60117
C         47.67329        24.56815        -1.67958
C         46.44801        25.24288        -1.60954
C         47.67235        27.38912        -1.42322
C         46.43305        26.68665        -1.53064
C         47.66010        28.81616        -1.40017
C         46.43817        29.51164        -1.49548
C         47.69855        31.67932        -1.32307
C         46.45016        30.98618        -1.79442
C         47.67860        33.07969        -1.14650
C         46.44810        33.81645        -1.19615
C         47.68528        35.90593        -0.85584
C         46.46117        35.21553        -1.07471
C         47.71964        37.41206        -0.95995
C         46.40471        38.09372        -0.60034
C         47.65505        40.23445        -0.23320
C         46.39159        39.48074        -0.30570
C         47.64142        41.61958         0.23928
C         46.41217        42.31131         0.27942
C         47.67504        44.41039         0.60391
C         46.42719        43.72880         0.43372
C         47.69890        45.85564         0.63902
C         46.45400        46.56508         0.58210
C         47.70003        48.75009         0.41133
C         46.46612        48.03541         0.92532
C         47.78335        50.23214         0.70363
C         46.49374        50.92683         0.33707
C         47.77464        52.98877        -0.13870
C         46.51849        52.30506         0.03809
C         47.74358        54.37403        -0.39063
C         46.55055        55.07123        -0.52106
C         50.20421        20.27862        -1.50200
C         48.93391        20.96970        -1.61651
C         50.17335        23.12143        -1.92895
C         48.93011        22.34919        -1.75612
C         50.17401        24.57319        -1.63261
C         48.92711        25.26706        -1.56148
C         50.15478        27.39626        -1.28361
C         48.91658        26.68354        -1.41090
C         50.14866        28.81969        -1.22404
C         48.91589        29.53521        -1.32325
C         50.20657        31.69070        -1.43629
C         48.90454        30.95107        -1.28009
C         50.14062        33.11217        -0.96163
C         48.92548        33.77783        -0.91100
C         50.11356        35.87185        -0.30802
C         48.88713        35.21001        -0.71752
C         50.05137        37.28469         0.03757
C         48.91575        38.00466        -0.23558
C         50.09322        40.11898         0.54984
C         48.95963        39.46668        -0.11727
C         50.09418        41.52869         0.60722
C         48.86809        42.27987         0.49329
C         50.12854        44.39792         1.14984
C         48.87187        43.68721         0.69585
C         50.17214        45.86096         0.76443
C         48.93183        46.53671         0.59284
C         50.25421        48.69455         0.31879
C         48.96971        47.97593         0.29391
C         50.25441        50.11653         0.12790
C         49.03817        50.86548         0.15108
C         50.27949        52.86806        -0.41783
C         49.03238        52.24437        -0.12460
C         51.39476        20.92101        -1.55483
C         52.70897        23.11790        -1.53150
C         51.48575        22.35669        -1.85814
C         52.66784        24.53100        -1.39664
C         51.39884        25.25199        -1.43433
C         52.60991        27.37033        -0.96496
C         51.39067        26.67134        -1.22568
C         52.60458        28.78778        -0.79326
C         51.38719        29.53272        -0.99433
C         52.60215        31.64455        -0.59167
C         51.41276        30.93333        -0.94813
C         52.61219        33.05061        -0.44740
C         51.43992        33.87172        -0.92209
C         52.45353        35.74237         0.58116
C         51.30264        35.19388        -0.22252
C         52.47177        37.24010         0.67702
C         51.25830        37.93201         0.53741
C         52.30150        39.79394         1.71191
C         51.19636        39.29584         0.93369
C         52.66165        41.67887         0.34969
C         51.32257        42.29102         0.61451
C         52.62292        44.39858         0.34665
C         51.36071        43.65082         0.72549
C         52.64831        45.78268         0.99679
C         51.38351        46.54489         0.70012
C         52.71531        48.63926         0.30016
C         51.44499        47.96728         0.44663
C         52.73680        50.02395        -0.00600
C         51.50145        50.77688        -0.08718
C         51.46848        52.16761        -0.36882
C         55.11403        23.10383        -1.21708
C         53.92773        22.42545        -1.41197
C         55.13163        24.51610        -1.12153
C         53.88705        25.23374        -1.17005
C         55.05236        27.35726        -0.66332
C         53.86156        26.66255        -0.93870
C         55.04017        28.75194        -0.35583
C         53.80753        29.48308        -0.49317
C         55.02675        31.60044        -0.09432
C         53.81615        30.90463        -0.35969
C         55.02249        33.01280         0.05656
C         53.79199        33.73337        -0.05072
C         54.96931        35.83623         0.50681
C         53.78304        35.12671         0.25835
C         54.93651        37.24031         0.88810
C         53.68180        37.92979         1.00060
C         54.85150        40.06610         1.64909
C         53.62070        39.28196         1.50128
C         54.94882        41.43910         1.46688
C         53.71679        42.28288         1.29830
C         55.08352        44.31639         0.89247
C         53.89016        43.65990         0.74287
C         55.12036        45.76231         0.67461
C         53.93234        46.49818         0.64012
C         55.20078        48.54805         0.16783
C         53.94875        47.89803         0.38280
C         55.18244        49.94042        -0.13642
C         54.00389        50.64509        -0.22089
C         57.63309        24.57176        -0.98635
C         56.37725        25.20532        -0.97105
C         57.51188        27.24056        -0.11861
C         56.37915        26.70948        -0.96352
C         57.45507        28.67355         0.31327
C         56.22006        29.43521         0.03304
C         57.45570        31.52604         0.40880
C         56.25096        30.85628         0.13675
C         57.50655        32.98469         0.26037
C         56.23259        33.74522         0.27869
C         57.52101        35.91547         0.49264
C         56.22187        35.12909         0.44972
C         57.37519        37.25094         1.18890
C         56.14941        37.90556         1.25001
C         57.38526        40.04247         1.81844
C         56.09355        39.25913         1.95307
C         57.40513        41.45011         1.77260
C         56.20777        42.17322         1.51949
C         57.53493        44.27151         1.19994
C         56.27150        43.57190         1.25107
C         57.58058        45.65282         0.80236
C         56.38429        46.41179         0.56841
C         57.71596        48.42300         0.16764
C         56.43115        47.80508         0.29257
C         58.83058        25.25987        -0.76811
C         59.97929        27.32442         0.00235
C         58.83408        26.60705        -0.32032
C         59.91522        28.68239         0.43223
C         58.73120        29.37246         0.54877
C         59.89195        31.55615         1.13310
C         58.60070        30.78411         1.07572
C         59.96649        32.88307         0.98454
C         58.79482        33.70692         0.59270
C         59.68605        35.70400         1.76481
C         58.68893        35.10653         1.02803
C         59.68178        37.09527         2.02213
C         58.57101        37.88141         1.70587
C         59.85104        40.02509         1.84778
C         58.59293        39.31460         1.85678
C         59.90731        41.37559         1.90172
C         58.67121        42.20637         2.11577
C         59.96254        44.28554         1.42611
C         58.73593        43.60127         1.52305
C         60.02047        45.60754         1.00879
C         58.83396        46.31817         0.71128
C         58.86903        47.70476         0.35796
O         32.58427        49.82618         1.66634
O         27.28847        27.51826         2.53798
O         28.07836        35.77132        -2.01021
O         34.84530        48.54652         1.90640
O         30.17868        45.29631         1.75082
O         35.87238        53.09667         0.98851
O         34.66890        22.32857         3.29565
O         37.79128        49.33954        -1.43600
O         57.19254        27.54052         1.26655
O         38.01305        28.88611        -2.45134
O         58.42505        33.48434        -0.82458
O         50.90885        22.75118        -3.14944
O         46.84061        22.62492        -2.96940
O         32.32972        33.41473        -2.45917
O         52.96902        41.09836        -0.68060
O         41.83252        20.36380        -1.34612
O         48.55585        40.09912        -1.40658
O         27.05963        34.31967         1.09783
O         38.19807        31.41365        -2.86581
O         48.12522        48.36165        -0.90463
O         53.22278        42.59369         2.64967
H         52.90339        43.53101         2.67647
O         43.92837        26.46115        -3.33663
H         43.63897        27.33374        -3.71253
O         56.71072        27.12822        -2.33637
H         56.03357        26.74964        -2.93629
O         58.18587        30.63231         2.48346
H         57.57660        29.86362         2.53401
O         27.33859        32.87073        -2.29461
H         28.14878        32.65877        -2.82054
O         47.90490        37.67733        -2.39493
H         48.13241        38.64130        -2.46299
O         30.00678        32.52874        -2.62557
H         30.86550        32.64237        -3.10943
O         50.09622        44.35430         2.62262
H         49.24200        44.74466         2.90622
O         42.35739        18.93259         2.60070
H         43.12364        18.37213         2.85191
O         57.84943        36.21122        -0.90892
H         58.05939        35.33928        -1.32596
O         41.44620        48.21946         2.28870
H         41.45710        49.18830         2.49157
O         46.50534        48.06061         2.38469
H         46.80505        48.96128         2.66037
O         46.53466        31.06150        -3.27512
H         47.27259        30.47797        -3.55500
O         38.89657        34.07391        -3.12279
H         38.70443        33.16947        -3.47686
O         52.62204        44.58665        -1.08998
H         52.63645        43.70270        -1.51535
O         42.62331        28.81179        -3.46016
H         41.69998        28.58266        -3.70647
O         36.24667        44.12155        -1.40129
H         36.97152        43.72984        -1.93193
O         41.39873        51.10970         2.06868
H         40.61613        51.67395         2.25008
O         26.54045        46.87767         1.92862
H         26.55402        45.99983         2.36629
O         27.97645        41.52224         2.21901
H         28.10671        42.43954         2.54384
O         44.00305        46.65326        -1.40479
H         44.06760        45.72226        -1.70825
O         30.09825        37.77456        -2.42718
H         29.32158        37.24083        -2.72159
O         38.92332        43.54589         2.20201
H         38.75010        44.42674         2.59816
O         55.98593        38.93602         3.38941
H         56.73285        38.33899         3.60982
O         30.86834        25.30293         3.47350
H         30.79786        26.27983         3.53151
O         29.31954        30.22230         2.15361
H         28.93438        29.51817         2.71908
O         45.29655        36.28759        -2.82614
H         46.14942        36.76461        -2.97606
O         58.59217        42.43187         3.57815
H         58.42796        41.55948         3.99601
O         51.77509        34.21386        -2.32069
H         51.04100        34.76000        -2.67488
O         29.27215        46.35998        -1.60265
H         28.52372        46.80202        -2.05712
O         52.69325        45.50681         2.43341
H         52.56808        46.34951         2.91776
O         52.17148        35.26680         1.96442
H         51.35694        35.72326         2.26663
O         35.59158        44.20550         2.18883
H         34.87076        44.62622         2.70311
O         51.95290        40.55782         2.75227
H         52.73181        40.95232         3.21039
O         41.47334        57.12304         0.79375
H         40.62978        56.76475         1.14373
O         24.02159        30.71840        -1.90799
H         24.17475        31.62184        -2.25880
O         37.11829        29.93690         0.92664
H         36.37416        30.32030         1.43855
O         26.90541        37.76390         2.02615
H         27.56894        38.42286         2.32421
O         47.90419        50.35560         2.17395
H         47.88272        51.31261         2.39051
O         50.39245        31.76859        -2.90934
H         49.66878        32.32941        -3.26290
H         22.29393        26.53358         0.05227
H         22.19335        28.95863        -0.46339
H         22.05098        30.95616         0.25491
H         22.04170        33.36620         0.53496
H         21.97937        35.33001         0.23230
H         21.98586        37.74849         0.40204
H         21.98754        39.61938         0.49228
H         21.94791        42.03744         0.34339
H         21.94801        43.91241        -0.11383
H         21.99038        46.34613        -0.46313
H         25.70624        23.48983         1.40426
H         23.59153        24.54732         0.78129
H         25.37732        49.67373        -0.83094
H         23.25041        48.45799        -0.70163
H         27.33149        22.78796         2.21243
H         26.96398        50.73997        -0.43155
H         29.45730        21.65794         2.34846
H         29.07744        51.94109        -0.48678
H         33.17039        19.54233         2.23878
H         31.08766        20.74983         2.26501
H         32.86303        53.87826        -1.36677
H         30.76080        52.64425        -1.30518
H         34.88452        18.67785         2.51318
H         34.54717        54.93652        -1.43766
H         36.96283        17.43150         2.25910
H         36.67400        56.04920        -1.60815
H         40.70101        15.26178         1.95342
H         38.61680        16.51595         2.24753
H         40.41643        58.22150        -1.70797
H         38.33975        56.95074        -1.81945
H         43.13841        15.19506         1.42489
H         42.89591        58.24990        -1.49023
H         45.16787        16.32361         0.62443
H         44.96828        56.96421        -1.40052
H         48.59234        18.24427        -1.23845
H         46.59464        17.11442        -0.45285
H         48.68256        54.93313        -0.49998
H         46.59724        56.15079        -0.71510
H         50.20623        19.20278        -1.28443
H         50.31448        53.93836        -0.66074
H         52.31155        20.35655        -1.33593
H         52.40239        52.71189        -0.56341
H         56.04878        22.53278        -1.15775
H         53.95385        21.33332        -1.51702
H         56.12627        50.47323        -0.31436
H         54.05076        51.71514        -0.46351
H         57.69784        23.49175        -1.18115
H         57.78862        49.49214        -0.07353
H         59.78608        24.72309        -0.85805
H         60.96581        26.85170        -0.10833
H         60.86806        29.18898         0.64092
H         60.79690        31.00385         1.42585
H         60.93873        33.38750         1.09327
H         60.55008        35.11510         2.10416
H         60.56104        37.54516         2.50168
H         60.78120        39.44836         1.74327
H         60.88944        41.86817         1.89915
H         60.89953        43.78002         1.69506
H         60.98948        46.12266         0.94261
H         59.84681        48.20041         0.26918
