         276
 CSIRO Nanostructure Databank - Neutral Graphene Oxide Data Set
C        -10.98144         0.68919         1.62487
C         -9.82582         1.45335         1.07135
C         -8.59021         0.66819         0.72767
C         -7.37765         1.45379         0.26785
C         -6.13211         0.65503        -0.08248
C         -4.83023         1.49840         0.02817
C         -3.74059         0.76133        -0.73556
C         -2.47242         1.48675        -1.06438
C         -1.33780         0.70330        -1.69680
C         -0.02487         1.43289        -1.80393
C          1.13464         0.76730        -1.11027
C          2.37584         1.54870        -0.83730
C          3.54588         0.77342        -0.13208
C          4.88147         1.44891        -0.32531
C          6.02381         0.75316         0.33261
C          7.24447         1.52480         0.65683
C          8.58910         0.81781         0.52706
C          9.61436         1.55607         1.39367
C         10.53142         0.72932         2.18766
C         -9.64297         2.91134         1.30441
C         -8.49873         3.60590         1.05344
C         -7.34152         2.96338         0.37019
C         -6.03417         3.68143         0.20144
C         -4.91527         3.00222        -0.17015
C         -3.57162         3.72133        -0.16304
C         -2.42350         2.96318        -0.86103
C         -1.34416         3.70663        -1.60195
C         -0.05342         2.96480        -1.81637
C          1.23055         3.82130        -1.69341
C          2.50240         2.96256        -1.39851
C          3.73817         3.69832        -1.01205
C          4.96958         2.90607        -0.61025
C          6.23208         3.72029        -0.33454
C          7.26019         3.04841         0.65018
C          8.66396         3.68603         0.48513
C          9.60325         2.91889         1.41793
C         -8.36817         5.06124         1.49214
C         -7.27381         5.81817         0.75192
C         -5.93204         5.11430         0.70986
C         -4.78306         5.97717         0.07850
C         -3.68664         5.15269        -0.58351
C         -2.62925         5.81312        -1.09411
C         -1.32166         5.22692        -1.53415
C         -0.24407         5.68768        -0.45942
C          1.13760         5.07632        -0.78950
C          2.26129         5.72291        -0.37949
C          3.62558         5.04714        -0.31877
C          4.88310         5.90720        -0.50503
C          5.94014         5.10804         0.27235
C          7.26006         5.84947         0.48163
C          8.44791         5.19202         0.67338
C         -7.45262         7.09119         0.34588
C         -6.43992         7.85640        -0.43489
C         -5.17575         7.16508        -0.80596
C         -3.96734         7.99692        -1.20480
C         -2.65142         7.28852        -1.20638
C         -1.40859         7.96107        -0.77598
C         -0.24110         7.22969        -0.48086
C          0.94645         7.91448        -0.15407
C          2.18212         7.12894         0.25974
C          3.45261         7.96391        -0.14774
C          4.75117         7.23783         0.29329
C          6.05069         8.00129         0.13778
C          7.21450         7.30500         0.32995
C         -6.39098         9.33449        -0.30542
C         -5.26087        10.05129        -0.43958
C         -3.98443         9.52006        -1.04772
C         -2.68625        10.06796        -0.50325
C         -1.46665         9.37567        -0.52149
C         -0.23378        10.03958        -0.21951
C          0.96014         9.33938        -0.09788
C          2.23382        10.16510         0.03270
C          3.47048         9.36940         0.49633
C          4.76218        10.08380         0.11899
C          5.94851         9.44320         0.00218
C        -11.02495        -0.65916         1.54531
C         -9.79876        -1.50778         1.40273
C         -8.47499        -0.76228         1.21174
C         -7.21831        -1.47685         0.85249
C         -5.97249        -0.59939         0.79673
C         -4.67018        -1.38426         0.50197
C         -3.58100        -0.65121        -0.25168
C         -2.18018        -1.09682        -0.24538
C         -1.25696        -0.66282        -1.12657
C         -0.02684        -1.47465        -1.39135
C          1.17518        -0.75422        -0.80623
C          2.51413        -1.40862        -1.07929
C          3.66816        -0.71745        -0.47042
C          4.79726        -1.43353        -0.16051
C          6.14428        -0.74100        -0.02168
C          7.18353        -1.39109         0.94648
C          8.47776        -0.64770         0.96968
C          9.79884        -1.37669         1.06264
C         10.62214        -0.62050         2.09327
C         -9.92523        -2.92498         0.93608
C         -8.95132        -3.86080         1.13090
C         -7.02225        -2.78231         1.20239
C         -5.98936        -3.58523         0.49242
C         -4.65033        -2.90385         0.45810
C         -3.57625        -3.65115        -0.24009
C         -2.29003        -3.22766        -0.36866
C         -1.34207        -3.79435        -1.44680
C         -0.01674        -2.97211        -1.61334
C          1.35264        -3.73392        -1.79740
C          2.59305        -2.90470        -1.34370
C          3.79017        -3.60928        -0.83129
C          4.84421        -2.88594        -0.28842
C          5.84099        -3.62012         0.60966
C          7.10531        -2.91046         1.21480
C          8.46109        -3.56114         0.97772
C          9.62984        -2.88023         1.16993
C         -8.72234        -5.24513         0.70572
C         -7.47062        -5.79384         0.46748
C         -6.25039        -5.01357         0.03493
C         -5.04142        -5.82001        -0.46024
C         -3.74347        -5.08336        -0.58226
C         -2.43812        -5.81764        -0.32524
C         -1.18081        -5.24101        -0.93732
C          0.04419        -6.03392        -1.25256
C          1.31736        -5.23838        -1.39456
C          2.53049        -5.82514        -0.72049
C          3.86299        -5.11884        -1.02072
C          5.03827        -5.76726        -0.32248
C          6.07769        -5.06533         0.21866
C          7.31948        -5.73651         0.60068
C          8.44260        -5.01248         0.89158
C         -7.29721        -7.22455         0.64408
C         -6.14073        -7.93168         0.41957
C         -5.03047        -7.36775        -0.44541
C         -3.68489        -7.96014        -0.01533
C         -2.57081        -7.20215         0.17504
C         -1.04582        -8.35489        -1.37523
C          0.09520        -7.49571        -0.90964
C          1.28041        -8.09444        -0.62157
C          2.48288        -7.27722        -0.29556
C          3.77677        -8.00841        -0.06259
C          5.05518        -7.24454        -0.13844
C          6.39315        -7.93318        -0.33908
C          7.40480        -7.26100         0.62169
C         -5.99740        -9.30508         0.85511
C         -4.82552       -10.00131         0.77537
C         -3.59946        -9.39416         0.27626
C         -2.46037       -10.13757         0.07301
C         -1.18833        -9.83613        -0.71865
C          0.10748       -10.08379        -0.03576
C          1.34597        -9.63232        -0.76996
C          2.67089       -10.21822        -0.33626
C          3.80527        -9.48786        -0.19267
C          5.12376       -10.10945        -0.05643
C          6.28555        -9.42492        -0.10846
O          4.62481         6.97132         1.66704
O         -4.00651        -0.32826        -1.63308
O         -7.72442         2.29737        -0.88069
O          5.19105         4.92043         1.51244
O         -0.05909        -2.01334        -2.73387
O         -0.94557         3.30375        -2.93280
O         -6.25104         7.19384        -1.76299
O          0.71064        -5.92515        -2.53669
O         -0.70639         5.18325         0.74521
O         -6.51025        -3.89628        -0.85737
O          2.81968        -1.88411        -2.41318
O          3.47616         3.37488        -2.40814
O          3.81462         4.61144         1.11744
O         -1.75129        -8.07398        -2.31383
O          7.61692        -0.73255         2.13989
O          5.23253         1.88992        -1.65285
O         -3.31908         7.67593        -2.47626
O          2.23981        -6.18721         0.65516
O          6.29774         1.08318         1.70029
O          4.46116        -7.58536         1.17452
O         -7.91113        -3.47757         2.01825
O         -1.43121        -5.14494         0.51799
O          6.71082        -0.87505        -1.27273
O         -4.51055        -5.40024        -1.77078
O         -1.82178        -2.22862         0.48492
O         -8.94079        -1.13570         2.54312
O         -0.67945         0.87142        -2.97540
O         -4.26078        -2.16417         1.66257
O         -9.62191         0.89856        -0.28667
O         -1.85958         2.05515         0.15421
O          1.26451         1.55700         0.12034
O          4.85157        -3.63965         1.64410
O         -5.34414        -7.81598        -1.78169
H         -4.96962        -7.15105        -2.40530
O          3.41555         8.15698        -1.57171
H          3.99108         7.49256        -2.02231
O         10.47919        -1.18638        -0.22437
H         11.36783        -1.59475        -0.15896
O          1.03355        -0.90215         0.63034
H          0.26816        -0.36681         0.93411
O          2.49847        10.74336        -1.25109
H          2.79625        10.01030        -1.83919
O         -1.54320        -7.63367         0.97726
H         -1.02823        -6.82651         1.23077
O         -9.62307         5.72622         1.38953
H         -9.95323         5.62395         0.47334
O          6.92829         3.44969         1.98994
H          6.37310         2.74451         2.40183
O          6.79823         3.95701        -1.64511
H          6.65132         3.12747        -2.16487
O         -5.92745        -0.16033         2.16944
H         -5.48161        -0.86364         2.69252
O          9.25172         3.54896        -0.81768
H          8.62844         3.92332        -1.48073
O         -5.57748         4.89430         2.11287
H         -4.76879         4.31752         2.11465
O         -4.14364         6.69603         1.17087
H         -4.42606         6.25524         2.01123
O          1.55481        -3.85296        -3.22363
H          1.63820        -2.93734        -3.58047
O         -2.01777        -3.80875        -2.69773
H         -1.68129        -3.05852        -3.23967
O          6.97476        -3.06173         2.63844
H          6.01782        -3.27987         2.81264
O          6.87352        -7.69837        -1.67805
H          6.22305        -8.05206        -2.31911
O          5.20499         6.14954        -1.86196
H          5.75882         5.39599        -2.19314
O         -3.14924         3.85022         1.24107
H         -2.25525         4.31275         1.22709
O          3.32215         0.85127         1.28566
H          2.46969         0.39537         1.47884
O          1.26603        -9.90606        -2.18038
H          0.40151       -10.34916        -2.37556
O          1.40538         4.42628        -2.99948
H          1.57611         3.71841        -3.65706
O         -3.91048        10.12179        -2.37886
H         -3.51590         9.42579        -2.96552
O          4.06776        -5.33809        -2.45038
H          3.35581        -4.86184        -2.94486
O         -1.28114       -10.66240        -1.91371
H         -1.97648       -10.26811        -2.48760
O         -6.34841         0.19919        -1.42035
H         -6.88065         0.87990        -1.89118
O          3.42438         9.26356         1.91824
H          4.00502         8.49309         2.17911
O          8.92522         0.91448        -0.86147
H          9.64471         0.26561        -1.04210
O          7.16665        -7.71933         1.95352
H          6.21955        -7.55822         2.16572
O         -0.97696         5.80256        -2.78120
H         -0.24976         5.26289        -3.18569
O         -4.36212         1.43964         1.40280
H         -3.58892         2.05305         1.49610
O          2.05291         6.98189         1.67451
H          2.92566         6.65711         2.02105
H         11.33986        -1.16620         2.72513
H         11.18130         1.25836         2.90374
H         10.32670         3.47111         2.03914
H          9.35672         5.81075         0.76268
H          8.17642         7.84113         0.35106
H          6.87068        10.01585        -0.18537
H          4.72885        11.18045         0.03409
H          2.05372        11.00847         0.74555
H         -0.23824        11.13240        -0.09214
H         -2.66008        11.15216        -0.30362
H         -5.28620        11.13533        -0.24903
H         -7.29885         9.83278         0.07028
H         -8.43849         7.56131         0.49878
H         -8.08539         5.06492         2.58173
H        -10.46344         3.44067         1.81629
H        -11.88667         1.25334         1.89801
H        -11.95774        -1.18280         1.80810
H        -10.76842        -3.14013         0.26339
H         -9.56353        -5.95259         0.81076
H         -8.13080        -7.75268         1.13631
H         -6.88625        -9.79575         1.28174
H         -4.79294       -11.05243         1.09882
H         -2.53525       -11.21167         0.31570
H          0.12722        -9.97517         1.06189
H          2.74927       -11.31458        -0.39963
H          5.14549       -11.20442         0.05848
H          7.23402        -9.97770        -0.02699
H          8.44144        -7.57752         0.34113
H          9.39317        -5.54429         1.05948
H         10.56973        -3.46034         1.15034
