         294
 CSIRO Nanostructure Databank - Neutral Graphene Oxide Data Set
C          1.28409         2.01742         1.11173
C          1.15230         3.40361         1.04739
C          2.50939         1.37587         1.25731
C          2.36061         4.29765         1.17701
C          1.05927         6.50874         0.82357
C          1.08302         7.85734         0.64339
C          2.23275         5.67767         0.52926
C          2.30434         8.59129         0.39706
C          1.02736        10.85666        -0.02910
C          1.02205        12.23465        -0.10697
C          2.23889        10.09235         0.36369
C          2.22319        13.01812        -0.16040
C          1.11930        15.26875        -0.17800
C          1.12803        16.62213        -0.27514
C          2.31700        14.43733        -0.25053
C          2.38654        17.38327        -0.34922
C          2.44751        18.79532        -0.79133
C          3.76541         2.18487         1.42367
C          3.58313         3.50228         0.62317
C          5.05243         1.45334         1.11893
C          4.85792         4.29990         0.52505
C          3.54424         6.42292         0.28994
C          3.51036         7.90452         0.32948
C          4.82513         5.65864         0.45954
C          4.80861         8.62487         0.42620
C          3.52039        10.87568         0.27035
C          3.43650        12.19222        -0.50613
C          4.84285        10.13393         0.37052
C          4.76240        12.92955        -0.28602
C          3.56772        15.09338        -0.47946
C          3.63848        16.56909        -0.49101
C          4.79829        14.38246        -0.69525
C          4.87315        17.22093        -1.10968
C          3.63914        19.42238        -0.95778
C          4.91359        18.72107        -0.86886
C          6.18265         2.08224         0.73919
C          6.09804         3.51030         0.10931
C          7.50230         1.38714         0.64216
C          7.36969         4.27990         0.31443
C          6.10903         6.39096         0.29879
C          6.09031         7.87060         0.18298
C          7.36547         5.71446         0.82882
C          7.35897         8.69206         0.40436
C          6.16109        10.86528         0.02338
C          5.90350        12.08667        -0.86679
C          7.21356         9.88530        -0.59488
C          7.20157        12.80629        -1.09451
C          6.01036        15.03093        -0.89528
C          6.08888        16.50119        -0.51277
C          7.26303        14.31739        -1.38393
C          7.39907        17.20200        -0.97928
C          6.10620        19.36404        -0.68257
C          7.37455        18.65834        -0.54028
C          8.55872         1.74921         1.43714
C          8.57466         3.74459        -0.04892
C         10.00403         1.38665         1.22555
C          9.76950         4.34385         0.62416
C          8.63091         6.45389         0.34066
C          8.63159         7.91036         0.16701
C          9.82053         5.77635         0.17022
C          9.78481         8.55833        -0.61107
C          8.49405        10.60578        -1.03672
C          8.21851        11.97714        -1.47430
C          9.71814         9.97620        -1.13418
C         10.11868        12.96981        -1.30310
C          8.50841        14.94506        -0.65846
C          8.59337        16.42369        -0.44122
C          9.82614        14.21536        -0.56155
C          9.71052        17.06004         0.02135
C          8.49620        19.28035        -0.08818
C          9.71543        18.52964         0.39696
C         11.09993         2.14997         0.95343
C         11.09120         3.61223         0.61718
C         12.46747         1.45039         1.06978
C         12.30803         4.30716         0.07755
C         10.94219         6.32976        -0.54830
C         10.71883         7.55761        -1.13031
C         12.20086         5.51396        -0.88331
C         12.51163         8.63291        -1.47171
C         11.06490        10.68636        -1.59989
C         11.12335        12.10940        -1.00419
C         12.36054         9.95046        -1.19542
C         12.37484        12.81635        -0.63643
C         11.03238        14.89716        -0.00240
C         10.98181        16.35723         0.34436
C         12.34613        14.27389        -0.30015
C         12.27496        17.07145         0.38051
C         11.05182        19.19148         0.13222
C         12.26993        18.51090         0.26952
C         13.69067         2.15352         0.48840
C         13.64053         3.61299         0.22012
C         14.85022         1.45932         0.28230
C         14.89072         4.32307        -0.15292
C         13.52369         6.30488        -0.99059
C         13.60019         7.79934        -0.82871
C         14.81483         5.52370        -1.11731
C         14.88766         8.52967        -1.35083
C         13.67554        10.73467        -1.07242
C         13.60432        12.04710        -0.33871
C         14.92100         9.91657        -0.62361
C         14.87328        12.78630        -0.12050
C         13.54963        14.95019         0.21088
C         13.49911        16.34227         0.41807
C         14.85461        14.30776        -0.21968
C         14.77323        17.06067         0.56207
C         13.52398        19.20344         0.32803
C         14.75164        18.53740         0.58848
C         16.13552         2.07376        -0.04349
C         16.23371         3.59425         0.03112
C         17.28138         1.35179        -0.24691
C         17.29117         4.10528        -0.95536
C         16.12990         6.29588        -0.98351
C         16.17884         7.75610        -1.25490
C         17.31959         5.61888        -0.92713
C         17.46093         8.52349        -1.14808
C         16.18330        10.74406        -0.78097
C         16.17900        12.10826        -0.42149
C         17.45010        10.06981        -1.27712
C         17.35691        12.87718        -0.31458
C         16.06099        14.88374         0.51564
C         15.96447        16.38867         0.59596
C         17.37073        14.38120        -0.14888
C         17.26873        17.14764         0.64603
C         15.92829        19.22212         0.88890
C         17.08642        18.43754         1.46809
C         18.61828         2.00519        -0.37400
C         18.61803         3.48022        -0.60417
C         19.88105         1.28942        -0.69914
C         19.81666         4.20074        -1.12086
C         18.60584         6.31573        -0.76083
C         18.50477         7.76640        -0.31182
C         19.80271         5.65681        -0.78871
C         19.86222         8.48520        -0.19495
C         18.70660        10.75271        -0.70594
C         18.66555        12.19769        -0.34464
C         19.88415         9.97714        -0.19777
C         19.75166        12.69070         0.60047
C         18.57772        14.90646         0.59384
C         18.44731        16.29135         1.19250
C         19.74503        14.20708         0.75163
C         19.76252        17.07788         1.07721
C         18.41338        19.13685         1.66840
C         19.60372        18.46263         1.69300
C         21.01778         1.95037        -1.00718
C         21.07900         3.42605        -1.23084
C         22.33488         4.20188        -1.06787
C         21.10170         6.28989        -0.30454
C         21.12614         7.78501        -0.70756
C         22.33129         5.50269        -0.72946
C         22.36013         8.57444        -0.33626
C         21.17150        10.73496        -0.13442
C         21.11058        12.06831         0.29741
C         22.36861         9.92437        -0.15996
C         22.24723        12.82239         0.70082
C         20.94748        14.85304         1.25656
C         20.92677        16.25253         1.60346
C         22.15401        14.10836         1.22311
C         21.97424        16.91539         2.21471
C         20.80410        19.07253         2.21634
C         21.92233        18.32040         2.47267
O         11.91078         4.50672         1.47226
O          8.80692        14.10502         0.50052
O         20.30928         3.83244        -2.44308
O         14.34970         4.53160         1.17682
O          9.76852         8.53526         0.86685
O         18.84194         2.98426         0.73452
O         19.86198         9.20709         1.07526
O          3.29315        17.14149         0.82027
O         19.19681        11.78215        -1.65313
O         10.89439        15.29909         1.38053
O         17.08767         7.93989        -2.42050
O          7.43886        17.13449        -2.38069
O          9.20220        12.58244        -2.26981
O          2.82353        10.82068         1.52703
O          4.92302         9.44262         1.64324
O         11.52963         7.94052        -2.20131
O         12.55366        13.85872        -1.72030
O          6.18192         7.03910        -1.00930
O          2.74425         5.82184        -0.82185
O         14.12733        12.20008         1.01790
O         17.90007         7.70134         1.00537
H         18.48879         8.18663         1.63184
O          4.85565        16.98201        -2.52085
H          5.81984        17.05480        -2.81583
O         13.36506         7.94115         0.59937
H         14.01605         7.39269         1.08830
O          8.27335         2.30935         2.65070
H          9.08476         2.69476         3.04148
O         14.66338         8.72704        -2.76797
H         15.55644         8.65862        -3.19630
O         16.71421         3.95194         1.33788
H         15.92872         4.01376         1.92983
O          4.84725        13.03072         1.15124
H          5.77318        13.23997         1.40526
O          7.41635         9.07930         1.78325
H          8.36543         9.21446         2.00890
O         17.43312        10.32445        -2.70920
H         17.92655        11.17032        -2.84558
O         16.08954        14.36343         1.87356
H         15.18828        14.44667         2.25386
O         17.03234         3.62222        -2.28785
H         16.28445         4.13726        -2.68065
O         13.91272        11.19131        -2.43857
H         14.17047        10.38473        -2.96036
O         17.53054        14.96913        -1.48112
H         16.70460        14.76293        -1.99064
O          5.94746         3.22158        -1.31902
H          5.01286         2.91457        -1.44041
O          7.32484        14.49344        -2.80967
H          8.15390        14.06972        -3.12816
O         12.00322         4.90048        -2.21112
H         11.75083         5.62872        -2.82268
O         20.10484        17.28374        -0.31299
H         19.32884        17.72796        -0.73944
O          9.48618         4.42609         2.06749
H         10.27091         4.88545         2.44949
O         16.63605        18.10707         2.81502
H         17.28559        17.45002         3.17472
O          8.76738         2.88832        -1.09036
H          7.88267         2.74212        -1.50620
O         15.01367        14.63156        -1.63139
H         14.17295        14.34693        -2.08198
O          3.88323         2.46958         2.86423
H          4.80766         2.75056         3.03783
O         12.38221         0.11183         0.57799
H         12.23102         0.14267        -0.38871
O         19.35752        12.18365         1.91116
H         20.06660        12.40764         2.54982
O         11.02281        10.77407        -3.03039
H         11.87746        11.16828        -3.31568
O          7.25157         5.82263         2.26072
H          8.00564         5.30831         2.63792
O         17.54870        17.55502        -0.71920
H         17.55277        16.71755        -1.26283
O         18.22282        16.03474         2.61211
H         17.51636        15.33957         2.66354
O         21.07583         6.27350         1.14553
H         20.82551         5.37380         1.44400
O          6.04895        16.55541         0.92246
H          5.15156        16.82288         1.22927
O         14.92654         9.66402         0.79752
H         14.74014        10.52294         1.25588
O          6.69334         9.32032        -1.80971
H          6.35584        10.05782        -2.37415
O          3.18836        11.83467        -1.89078
H          3.04108        12.65676        -2.40312
O          9.59781        18.54326         1.86985
H          8.87845        17.92019         2.11083
O          2.50611         4.63322         2.57840
H          2.78525         3.81065         3.05746
O         21.03223         7.79535        -2.15452
H         21.15715         8.71214        -2.47716
O          3.24950         3.10905        -0.74005
H          3.03990         3.95083        -1.21777
O          5.54724        11.65458        -2.21073
H          5.64567        12.42333        -2.81293
O          6.73199        11.41360         1.21849
H          6.57556        10.75571         1.94046
O         14.76198         4.96678        -2.48392
H         13.81376         4.73859        -2.66508
H          0.37328         1.40262         1.04052
H          0.14793         3.84922         0.99196
H          2.55664         0.27847         1.31184
H          0.15468         6.02545         1.22023
H          0.16930         8.43578         0.84353
H          0.06905        10.32257        -0.12135
H          0.04803        12.73929        -0.20461
H          0.15053        14.75599        -0.09049
H          0.17713        17.17562        -0.29895
H          1.50328        19.34824        -0.90499
H          5.10414         0.41067         1.47303
H          3.65859        20.50048        -1.18209
H          7.70788         0.83817        -0.29017
H          6.10870        20.45645        -0.52936
H         10.22847         0.31341         1.38851
H          8.45150        20.35154         0.17223
H         12.66546         1.35872         2.17616
H         11.07079        20.28724         0.02036
H         14.83458         0.36812         0.44016
H         13.51674        20.30405         0.29677
H         17.23953         0.24994        -0.25851
H         15.93521        20.32315         0.91207
H         19.89452         0.19112        -0.61819
H         18.38213        20.16294         2.07274
H         21.94628         1.38076        -1.17168
H         23.29077         3.69266        -1.27164
H         23.29928         6.01939        -0.63534
H         23.32095         8.03930        -0.30497
H         23.33373        10.41755         0.03163
H         23.24599        12.36969         0.61761
H         23.08614        14.60044         1.53567
H         22.86636        16.36393         2.54713
H         20.78163        20.13894         2.48764
H         22.80233        18.79637         2.92851
