         576
 CSIRO Nanostructure Databank - Neutral Graphene Oxide Data Set
C          6.35592        19.07434        -1.49337
C          6.33601        20.43351        -1.67827
C          5.10127        21.18464        -1.70109
C          6.29751        23.32672        -1.51074
C          5.09128        22.55108        -1.70863
C          6.26803        24.70668        -1.38572
C          8.75862        14.78460        -1.11972
C          8.79842        16.16355        -1.17213
C          7.56972        16.94309        -1.19270
C          8.86692        18.98306        -1.63692
C          7.56991        18.28985        -1.45533
C          8.88619        20.48345        -1.81302
C          7.57673        21.23359        -2.03870
C          8.68768        23.20884        -0.92185
C          7.55765        22.60710        -1.41449
C          8.57324        24.62207        -0.48416
C          7.43770        25.43458        -0.98860
C          8.70572        27.54275        -0.64023
C          7.50771        26.81763        -0.99988
C          8.76840        28.97111        -0.74611
C         11.03553        10.37825        -0.39423
C         11.06945        11.82311        -0.55343
C          9.91296        12.53473        -0.83779
C         11.26029        14.64403        -0.98534
C          9.98620        13.93795        -1.35858
C         11.34026        16.09098        -1.39019
C         10.06147        16.86796        -1.17960
C         11.33588        18.97711        -1.18270
C         10.10548        18.26920        -1.23038
C         11.39793        20.48194        -1.47799
C         10.07271        21.19448        -1.30358
C         11.13669        23.19461        -0.32613
C          9.97598        22.50886        -0.83501
C         11.10702        24.60372        -0.01600
C          9.82120        25.35717        -0.05410
C         11.03409        27.55499         0.17986
C          9.82659        26.82333        -0.18641
C         11.16067        28.96569        -0.18756
C          9.94510        29.72108        -0.48323
C         11.27276        31.79454         0.08152
C         10.00395        31.12649        -0.43455
C         11.40147        33.27853        -0.18956
C         13.30537         6.05060         0.15143
C         13.23044         7.47474         0.36706
C         12.14711         8.19105        -0.06443
C         13.44214        10.30012         0.11627
C         12.15689         9.63691        -0.10678
C         13.58980        11.68238        -0.50060
C         12.32494        12.50531        -0.45588
C         13.64948        14.62048        -0.30730
C         12.39265        13.92601        -0.59950
C         13.69826        16.07606        -0.44934
C         12.54752        16.82522        -0.88522
C         13.80912        18.95935        -0.84064
C         12.53487        18.23351        -0.95902
C         13.79112        20.45232        -0.62576
C         12.50638        21.16746        -0.71667
C         13.53317        23.12578         0.38783
C         12.38789        22.46840        -0.22177
C         13.46163        24.55710         0.83170
C         12.26392        25.28883         0.30893
C         13.59115        27.44386         0.20233
C         12.30224        26.76230         0.45097
C         13.63166        28.78114        -0.23607
C         12.40257        29.56778        -0.36518
C         13.32085        31.69470        -1.32516
C         12.38241        31.01439        -0.56447
C         13.64367        33.07538        -1.19187
C         12.58833        33.88754        -0.62398
C         14.06890        35.84130        -0.84559
C         12.84374        35.29362        -0.47434
C         14.42861        37.22261        -0.50312
C         15.71329         6.03570         0.67590
C         14.48271         5.38314         0.26063
C         15.68983         7.43132         1.08538
C         14.34786         8.16650         1.11658
C         15.70752        10.30896         1.12199
C         14.48187         9.61385         0.67172
C         15.92434        11.71926         0.69857
C         14.82579        12.43642        -0.02104
C         16.02001        14.55967         0.46676
C         14.78002        13.91421         0.08781
C         15.96692        16.05744         0.66476
C         14.87794        16.73074        -0.12726
C         16.04412        18.82412         0.46342
C         15.01297        18.16232        -0.39161
C         15.92426        20.24385         0.85090
C         14.89278        21.08934         0.17826
C         15.91290        23.17656         1.06654
C         14.71674        22.47129         0.66053
C         15.97948        24.55622         0.85943
C         14.76809        25.28851         0.60151
C         16.09098        27.34355         0.42029
C         14.78642        26.65949         0.37030
C         16.17307        28.80585         0.05100
C         14.91879        29.40508        -0.45890
C         16.17375        31.47726        -1.05047
C         15.06839        30.54963        -1.21208
C         16.16554        32.83193        -1.63490
C         14.93318        33.62958        -1.52151
C         16.31956        35.72590        -1.94271
C         15.08863        35.02532        -1.42459
C         16.87037        36.80329        -0.94179
C         15.70231        37.67042        -0.50501
C         18.13059         5.88117         1.15206
C         16.90909         5.36598         0.53995
C         18.08871         7.30367         1.72907
C         16.85944         8.06972         1.45835
C         18.23377        10.26090         1.63790
C         16.91308         9.55063         1.58144
C         18.30188        11.68799         1.53362
C         17.00192        12.47902         1.46241
C         18.46994        14.49664         0.89060
C         17.13363        13.86743         0.89164
C         18.55941        15.98216         0.67608
C         17.30355        16.75485         0.58083
C         18.58426        18.88334         0.70970
C         17.33418        18.10464         0.57230
C         18.46392        20.26991         1.25357
C         17.12384        20.93136         1.42719
C         18.46187        23.08336         1.41355
C         17.12809        22.42917         1.47017
C         18.50558        24.46908         0.96529
C         17.27402        25.20112         0.70740
C         18.55952        27.16133        -0.11231
C         17.31234        26.53242         0.33255
C         18.64481        28.60288        -0.46150
C         17.45303        29.33911        -0.46928
C         18.69953        31.37310        -1.32700
C         17.50802        30.76961        -0.74690
C         18.65785        32.66553        -1.77677
C         17.41423        33.42495        -1.84449
C         18.66352        35.43676        -2.56378
C         17.47852        34.81188        -2.24147
C         18.61376        36.91571        -2.84927
C         17.93163        37.63240        -1.71581
C         20.61237         6.07699         0.86587
C         19.42838         5.33592         0.76192
C         20.64488         7.38468         1.49475
C         19.39522         8.01236         2.13970
C         20.62212        10.23339         2.24202
C         19.38342         9.52297         1.90143
C         20.74090        11.69399         2.05071
C         19.55284        12.38774         1.66868
C         20.86725        14.49645         1.61380
C         19.64628        13.79831         1.44745
C         20.90304        15.95605         1.43881
C         19.79592        16.67502         1.08378
C         21.01082        18.86598         1.49779
C         19.91824        18.14475         0.72539
C         20.93592        20.23111         1.84348
C         19.59350        20.90573         2.04930
C         20.93635        22.99985         1.57147
C         19.60913        22.37745         1.69085
C         20.97323        24.44290         1.23946
C         19.71671        25.13121         0.91199
C         21.05722        27.25416         0.41116
C         19.82220        26.42976         0.24083
C         21.13545        28.57267        -0.32052
C         19.88160        29.17598        -0.83061
C         21.16088        31.32942        -1.23941
C         19.92945        30.50646        -1.55675
C         21.16680        32.69165        -1.56720
C         19.95647        33.28661        -2.26779
C         20.92126        35.54797        -1.64823
C         19.91220        34.79703        -2.20596
C         20.86196        37.06547        -1.63489
C         19.48948        37.70859        -1.94240
C         22.96789         6.32374         0.15561
C         21.80007         5.54742         0.28406
C         22.98763         7.62012         0.78671
C         21.85060         8.07959         1.54176
C         23.21099        10.16006         2.24451
C         21.91057         9.40635         2.21459
C         23.11675        11.58489         2.87055
C         21.98067        12.37855         2.19888
C         23.31944        14.52440         2.24596
C         22.04476        13.77577         1.99522
C         23.46833        15.91710         1.67012
C         22.20932        16.68168         1.42562
C         23.39194        18.82998         2.08432
C         22.21819        18.15744         1.62182
C         23.32935        20.23004         2.36044
C         22.11811        20.93624         2.22459
C         23.27076        23.16047         2.41978
C         22.12849        22.39292         2.20789
C         23.32463        24.58909         2.05424
C         22.17014        25.21618         1.57555
C         23.35156        27.30011         1.44750
C         22.31600        26.45961         0.72241
C         23.80408        28.75332        -0.40338
C         22.42606        29.29526        -0.55982
C         23.57070        31.43957        -0.57509
C         22.31555        30.67538        -0.71666
C         23.59142        32.87646        -0.99819
C         22.30242        33.52398        -1.32800
C         23.24018        35.75265        -0.75023
C         22.17331        34.93182        -1.25102
C         22.99348        37.15271        -0.35890
C         21.70223        37.67357        -0.54137
C         25.14669         6.75770        -0.95450
C         24.09667         5.87266        -0.58176
C         25.02643         8.11850        -0.46818
C         24.08156         8.47304         0.50480
C         25.52207        10.51863         1.08806
C         24.29735         9.68566         1.33522
C         25.77306        11.77286         1.89795
C         24.73201        12.31783         2.87640
C         25.87357        14.58093         2.47130
C         24.60132        13.84058         2.68158
C         25.87053        16.05988         2.74296
C         24.79099        16.70077         1.81221
C         25.83444        18.88164         2.48945
C         24.63086        18.15198         2.21417
C         25.82136        20.26289         2.73528
C         24.52372        20.93887         2.84236
C         25.79666        23.20355         3.00159
C         24.47914        22.47307         2.93902
C         25.78156        24.73885         2.64844
C         24.58129        25.32304         2.08841
C         25.82515        27.46917         1.59598
C         24.68560        26.66178         1.57022
C         25.89604        28.83983         1.08170
C         24.77278        29.43815         0.33512
C         25.81806        31.68191         0.45420
C         24.51453        30.91266         0.50761
C         25.66754        33.16914         0.44524
C         24.80049        33.74368        -0.67552
C         25.57637        35.97346        -0.00433
C         24.48735        35.18827        -0.42133
C         25.45311        37.48077        -0.23687
C         24.06664        37.90500         0.17790
C         27.07895         7.34626        -2.51657
C         26.22758         6.34746        -1.77212
C         26.93244         8.72939        -1.94259
C         25.85840         9.15919        -1.06001
C         27.43398        11.14589        -0.43822
C         26.15932        10.45477        -0.25126
C         27.80522        12.13779         0.45812
C         26.86140        12.63424         1.40773
C         28.28770        14.65504         1.84228
C         26.96749        13.96975         1.89724
C         28.34063        16.10608         2.01557
C         27.16402        16.77862         2.37059
C         28.22023        18.99962         1.81994
C         27.09638        18.17875         2.36179
C         28.34667        20.36056         2.50133
C         27.08984        21.01522         3.08706
C         28.36449        23.28593         2.84094
C         27.04094        22.51891         2.82820
C         28.25036        24.75512         2.48887
C         27.07584        25.40277         2.34558
C         28.20409        27.71053         2.61332
C         27.00980        26.88511         2.26453
C         28.11626        29.22318         2.36912
C         26.99404        29.63249         1.41850
C         28.17396        31.93137         1.43568
C         27.05536        31.05205         0.98711
C         28.09414        33.37086         1.27449
C         26.82031        34.01311         0.87074
C         28.00175        36.17236         0.43944
C         26.81971        35.42081         0.39843
C         28.00957        37.57660        -0.18389
C         26.68755        38.11996         0.31544
C         29.40166         6.28826        -1.86762
C         28.66520         7.23673        -2.77555
C         29.11908         8.68215        -2.63356
C         28.05771         9.47630        -2.11409
C         29.58499        11.55137        -1.98399
C         28.13470        10.93543        -1.77686
C         30.03532        12.45158        -0.81778
C         29.27546        12.54545         0.52214
C         30.72274        14.71019         0.92159
C         29.47009        13.93497         1.23193
C         30.76151        16.17308         1.15068
C         29.68663        16.81995         2.02751
C         30.60698        19.01935         1.26595
C         29.55287        18.29832         1.71111
C         30.46545        20.49692         1.09315
C         29.49058        21.17777         2.00954
C         30.62839        23.42115         1.58809
C         29.31152        22.67068         1.79007
C         30.70374        24.81655         1.81852
C         29.54198        25.50184         2.46342
C         30.84516        27.77002         2.40804
C         29.54006        26.99228         2.67137
C         30.64772        29.22728         2.00749
C         29.43069        29.86399         1.96976
C         30.59550        32.07164         1.97776
C         29.35991        31.30003         1.78502
C         30.50302        33.56871         1.76940
C         29.22013        34.17883         1.36878
C         30.39511        36.34938         0.99111
C         29.21936        35.59234         0.96654
C         30.38059        37.75617         0.64956
C         29.22800        38.36386         0.21966
C         31.93142         6.92648        -1.55560
C         30.71773         6.20117        -1.39626
C         32.23526         8.03043        -2.35712
C         30.37122         9.22517        -2.77257
C         32.04228        11.03447        -2.31318
C         30.73974        10.54775        -2.31486
C         32.20875        12.54005        -2.06453
C         31.26903        12.99239        -0.93422
C         32.74342        15.01493        -0.57794
C         31.71462        14.11018        -0.05289
C         32.88910        16.31736        -0.11202
C         31.83305        16.90470         0.70502
C         32.86081        19.11625         0.10638
C         31.97087        18.37018         1.11161
C         32.79598        20.61410         0.02186
C         31.58833        21.33208         0.56056
C         32.83593        23.50530         0.52929
C         31.69686        22.77226         0.93352
C         32.88285        24.91344         0.70020
C         31.79221        25.57115         1.33593
C         33.02726        27.77910         1.12697
C         31.66979        27.09278         1.27061
C         33.11237        29.25155         1.35570
C         31.86534        29.98303         1.71987
C         33.16243        32.13281         1.64244
C         31.86529        31.35411         1.73466
C         32.99355        33.53668         1.08776
C         31.72086        34.26972         1.26585
C         32.94579        36.44202         0.96324
C         31.70245        35.76145         1.49138
C         32.84495        37.86984         0.76666
C         31.63826        38.49423         0.68087
C         33.35832         8.87256        -2.25068
C         34.52956        10.95074        -2.70505
C         33.29091        10.27787        -2.49539
C         34.72382        12.32931        -2.46817
C         33.62764        12.92948        -1.62870
C         34.95215        15.16262        -1.84200
C         33.67304        14.43615        -1.54910
C         35.15388        16.46049        -1.17956
C         34.07881        17.06020        -0.45472
C         35.27333        19.21746        -0.50175
C         34.15472        18.46576        -0.18523
C         35.26483        20.66542        -0.41086
C         34.05391        21.33754        -0.12828
C         35.26826        23.57182        -0.25751
C         33.98276        22.81218        -0.10270
C         35.27057        25.01626         0.04186
C         34.09376        25.65388         0.32305
C         35.28773        27.88760        -0.02363
C         33.97510        27.14886         0.13070
C         35.27282        29.34269         0.05760
C         34.21155        30.02280         0.71550
C         35.35557        32.16768         0.40243
C         34.24638        31.41195         0.86763
C         35.37016        33.61592         0.52202
C         34.23835        34.31913         0.85737
C         34.12312        35.75778         0.77482
C         35.91898        13.02527        -2.70264
C         37.30832        15.10310        -2.48657
C         36.11894        14.39959        -2.33923
C         37.42675        16.49651        -2.11427
C         36.35538        17.13172        -1.38765
C         37.58912        19.31860        -1.45786
C         36.56593        18.48362        -0.74906
C         37.59960        20.72209        -1.24330
C         36.47801        21.38606        -0.64349
C         37.68832        23.63184        -0.81190
C         36.58228        22.82193        -0.17092
C         37.68288        25.00221        -0.75974
C         36.60017        25.74729         0.00678
C         37.57962        27.91413        -0.91065
C         36.43728        27.20947        -0.37174
C         37.50602        29.41114        -1.13753
C         36.38698        30.09386        -0.38913
C         36.42353        31.47894        -0.21085
C         38.55102        17.26004        -2.45025
C         39.66654        19.46454        -2.72090
C         38.61657        18.67696        -2.19444
C         39.73718        20.84774        -2.46508
C         38.72584        21.47267        -1.69517
C         39.97708        23.70957        -1.99244
C         38.85215        22.89512        -1.33612
C         39.77641        25.15733        -2.06311
C         38.74688        25.77697        -1.38815
C         38.65649        27.22372        -1.39743
C         40.76572        21.65677        -3.10332
C         40.83437        23.00173        -2.95895
O         34.43355        23.32467        -1.43204
O         15.41503        19.20863         1.75141
O         14.94524        21.08428        -1.28705
O         26.79547        31.19519        -0.49536
O         25.19328        10.42515        -1.34356
O         30.39423        21.03169        -0.26718
O         24.24283         9.31387         2.77078
O         32.66213        18.37901         2.32680
O         19.29457        26.36478        -1.12367
O         16.90751        21.59835         2.69778
O         16.78022        31.51294         0.28168
O         33.82469        15.16500        -2.79569
O         29.50776        12.40880        -3.09029
O         22.79584        11.47262         4.17743
O         30.59446        33.02816         3.11830
O         21.26567        23.40838         0.16483
O          8.85555        24.83919         0.93946
O         22.99382        16.08871         0.30063
O         25.63452        33.77457         1.75129
O         33.64460        28.26729         2.33470
O         29.50927        20.59700         3.34392
O         23.72961        14.49486         3.65814
O         24.05925        31.79815        -1.90663
O         18.76322        15.06613        -0.45347
O         31.32736         8.40232        -3.36498
O         29.74169        26.09801         3.80828
O         16.17823        28.39666         1.45736
O         31.87369        13.93991         1.39695
O         17.89398         6.14592         2.60002
O         14.85577        18.55230        -1.78471
O         29.88441        11.57408         1.27503
O         26.40285        10.47472         2.22217
O         20.86918        28.43655         1.20929
O         25.74923        24.26801         4.02258
O         11.51189        27.27194         1.56893
O         40.09958        23.19648        -0.61965
O         32.08140        33.74280        -0.05295
O         21.21741         9.60760         3.44569
O         27.25394        27.37542         3.66582
O         29.28464        13.91447         2.66011
O         24.27170        21.65928         4.12080
O          9.12210        19.59036        -2.97594
O         23.06263        28.22327         2.19616
O         15.94818        10.09943         2.57608
O         14.12676        30.90236        -2.17997
O         16.02623        11.92349        -0.74015
O         18.69643        20.06227        -0.17503
O         32.36624        19.72876        -1.10245
O         28.09544        37.49418        -1.61277
H         27.17854        37.46601        -1.98355
O         11.50074        16.05326        -2.88275
H         11.66844        16.97556        -3.17844
O         28.57903        22.81055         0.54463
H         29.06594        22.28133        -0.13970
O         13.78019        11.42263        -1.92783
H         14.75322        11.37858        -2.07923
O         31.72662        35.96262         2.93757
H         31.17888        35.26572         3.36094
O         23.88741        31.18110         1.78432
H         23.47976        30.34919         2.11743
O         19.95537        30.18968        -2.98403
H         19.99661        31.05167        -3.47305
O         13.93675         8.18208         2.51567
H         14.59963         8.73090         2.99884
O         25.65536        33.75745        -1.85118
H         25.64115        32.84262        -2.22156
O         27.21996        20.96874         4.53185
H         28.16172        21.19414         4.73180
O         17.41468        36.11088         0.18499
H         17.56656        36.75236         0.90824
O         25.19232        12.07130         4.17598
H         24.37721        11.81392         4.70302
O         25.59164        16.36079         4.11081
H         24.91361        15.72086         4.43423
O         27.79000        29.84911         3.63966
H         27.22571        29.20781         4.13391
O         11.34360        31.63221         1.53616
H         10.45655        31.81723         1.90825
O         22.75649        25.86844        -0.53839
H         22.29551        25.00152        -0.64147
O         27.24625        11.61850        -2.68861
H         27.85559        12.19611        -3.23829
O         37.13317        18.20794         0.59401
H         36.40858        17.86181         1.15911
O         20.38590        18.13287        -0.65166
H         20.12180        18.99117        -1.05495
O         25.41620        16.69911         0.49707
H         24.67466        16.72708        -0.15776
O         15.58634        16.19457         2.08152
H         14.73572        15.72584         2.21648
O         19.31151        20.73413         3.45837
H         18.41341        21.11406         3.63039
O         26.52971         7.33873        -3.87132
H         25.63308         7.73405        -3.83787
O         16.55578        12.68664         2.83192
H         16.42229        11.79281         3.23333
O         37.08162        25.77002         1.38852
H         36.41994        26.24389         1.93606
O         15.91236        36.45170        -3.14179
H         15.30049        35.87629        -3.64721
O         10.00732        13.78071        -2.83938
H         10.49209        14.56726        -3.19911
O         18.40083        37.30186        -4.19261
H         17.45255        37.12803        -4.38921
O         20.07503        32.90576        -3.68520
H         20.92724        33.26043        -4.01799
O         28.58143         5.30374        -1.43848
H         29.04280         4.71013        -0.81129
O         11.72933        20.60911        -2.90369
H         10.95436        20.25004        -3.39717
O         21.61420        37.43691        -2.85918
H         21.03317        37.24418        -3.62793
O          7.46768        21.48567        -3.47026
H          7.82111        20.68256        -3.91871
O         30.89996        27.35974         0.06924
H         31.50145        27.23142        -0.70554
O         28.97714        23.17233         4.13987
H         28.49290        23.76221         4.75679
O         27.78790        19.34681         0.45830
H         27.49694        18.52543         0.00655
O         25.46867        37.63426        -1.70096
H         24.72111        37.11194        -2.06678
O         31.58725        27.78778         3.62941
H         31.25529        27.04921         4.19230
O         19.50374         7.83386         3.56997
H         19.13895         6.94075         3.77222
O         36.87393        22.74864         1.25955
H         37.82774        22.54784         1.36944
O         33.64634        32.32616         3.00197
H         33.67654        31.45077         3.44291
O         33.30805        27.29466        -1.17674
H         33.80735        26.76343        -1.83386
O         31.96018        13.22567        -3.28825
H         30.99927        13.05025        -3.51543
O         30.12603        16.69518         3.40458
H         30.30785        15.74361         3.57443
O         24.21266        27.67751        -1.09839
H         23.47522        27.23151        -1.56820
O         13.27805        24.53362         2.29190
H         13.06056        25.44616         2.58259
O         33.81776        12.40212        -0.29365
H         34.71313        12.63806         0.02466
O         38.76670        30.02874        -0.85962
H         38.97499        29.88806         0.08658
H          5.40590        18.54399        -1.32048
H          4.15183        20.62804        -1.71594
H          4.13385        23.09089        -1.75541
H          5.33101        25.25508        -1.56549
H          7.78091        14.27773        -1.12662
H          6.61491        16.41458        -1.05090
H          6.63586        27.39330        -1.34592
H          7.84723        29.50856        -1.02015
H         10.07023         9.86919        -0.53402
H          8.95459        11.99995        -0.92391
H          9.17855        31.72983        -0.84272
H         10.62167        33.92754         0.24175
H         12.40372         5.52903        -0.20313
H         11.28465         7.66509        -0.50277
H         12.08991        35.92530         0.01876
H         13.62128        37.88043        -0.14469
H         14.53459         4.31180         0.01825
H         15.91544        38.69448        -0.15829
H         16.94006         4.38796         0.03668
H         17.52054        38.61501        -2.01089
H         19.44513         4.38021         0.21764
H         19.68322        38.73105        -2.31847
H         21.76080         4.54679        -0.17145
H         21.48217        38.70093        -0.21089
H         24.10228         4.84096        -0.96468
H         23.87987        38.89732         0.61499
H         26.17826         5.32543        -2.18139
H         26.65545        38.41774         1.37816
H         28.78602         6.87353        -3.82604
H         29.27438        39.40686        -0.13050
H         32.73559         6.60276        -0.87653
H         30.84223         5.35210        -0.69978
H         33.77302        38.44974         0.64847
H         31.59394        39.57944         0.50603
H         34.29781         8.46792        -1.83974
H         35.38858        10.34172        -3.03059
H         36.29339        34.15004         0.25063
H         35.01825        36.32158         0.46608
H         36.75098        12.49550        -3.19408
H         38.18970        14.60407        -2.91783
H         37.31774        29.57359        -2.23830
H         37.30000        32.03833        -0.56936
H         39.37628        16.79118        -3.00695
H         40.44816        18.98823        -3.33127
H         40.48077        25.76021        -2.65632
H         39.48331        27.78560        -1.85717
H         41.44852        21.14634        -3.79887
H         41.54858        23.59053        -3.55362
