         276
 CSIRO Nanostructure Databank - Neutral Graphene Oxide Data Set
C        -11.04582         0.36088         1.38874
C         -9.71117         1.03798         1.57399
C         -8.65884         0.46741         0.63107
C         -7.35400         1.18176         0.59146
C         -6.43279         0.76944        -0.56765
C         -5.12918         1.56969        -0.69166
C         -3.84498         0.86117        -1.12923
C         -2.52976         1.53785        -0.88636
C         -1.26214         0.76974        -0.54948
C         -0.00606         1.51534        -1.03092
C          1.28406         0.78849        -0.88642
C          2.48972         1.58445        -0.80986
C          3.71729         0.81250        -0.44041
C          4.98309         1.52039        -0.11191
C          6.31457         0.83393        -0.11659
C          7.44215         1.52053         0.61243
C          8.72573         0.78041         0.69843
C         10.02113         1.59638         0.85882
C         11.23492         0.74983         0.51055
C         -9.74766         2.55130         1.45188
C         -8.62111         3.28869         1.30883
C         -7.30986         2.58307         1.14260
C         -6.00521         3.37581         1.06719
C         -5.03669         2.90424        -0.01577
C         -3.70518         3.56877         0.16222
C         -2.46010         2.90260        -0.27341
C         -1.28376         3.74281        -0.69153
C         -0.01589         3.01571        -1.08344
C          1.28157         3.83308        -1.17366
C          2.53120         2.97176        -0.90340
C          3.81921         3.71863        -0.74704
C          5.08128         2.98494        -0.36468
C          6.30042         3.71283         0.11873
C          7.50366         3.05392         0.76752
C          8.74572         3.63362         0.05194
C          9.91660         2.88575         0.06933
C         -8.76842         4.79944         1.02096
C         -7.48739         5.62142         1.15670
C         -6.18430         4.88941         1.10190
C         -4.99367         5.70768         0.72086
C         -3.75877         5.06300         0.21603
C         -2.44600         5.72414         0.48830
C         -1.27698         5.18539        -0.28842
C          0.01865         6.00031        -0.36339
C          1.26107         5.06840        -0.22066
C          2.50736         5.90826        -0.47211
C          3.82275         5.19554        -0.47494
C          4.88711         5.79681         0.45202
C          6.28532         5.20972         0.24948
C          7.57330         5.86241        -0.28510
C          8.65969         4.90711        -0.57205
C         -7.44204         7.08873         0.83702
C         -6.28209         7.81798         0.91727
C         -5.00334         7.11717         1.22053
C         -3.70467         7.85384         1.29615
C         -2.42356         7.09177         1.08851
C         -1.11347         7.85371         1.11994
C          0.11813         7.17291         0.62841
C          1.39407         8.02264         0.57593
C          2.51222         7.35678        -0.18307
C          3.79287         8.04377         0.07896
C          4.85537         7.31062         0.44311
C          6.63910         8.16939        -0.53734
C          7.46544         7.17945        -0.98092
C         -6.16057         9.25284         0.70832
C         -4.97126         9.92619         0.74434
C         -3.67192         9.30605         0.99442
C         -2.48183         9.97054         0.90032
C         -1.10839         9.38766         1.24181
C          0.01721        10.04970         0.42245
C          1.19003         9.44939         0.12848
C          2.40259        10.08724        -0.57413
C          3.80986         9.55655        -0.09027
C          4.91782         9.92653        -1.08944
C          6.12845         9.33659        -1.26616
C        -11.17869        -0.82786         0.79028
C        -10.08881        -1.49836        -0.00822
C         -8.76557        -0.76054         0.07499
C         -7.60039        -1.42646        -0.56921
C         -6.27810        -0.73258        -0.64142
C         -5.12796        -1.37812        -0.98093
C         -3.84711        -0.66501        -1.39833
C         -2.55134        -1.36169        -1.00918
C         -1.24125        -0.63983        -1.18832
C         -0.01230        -1.41202        -0.64902
C          1.28937        -0.62927        -0.80265
C          2.48041        -1.38730        -0.71914
C          3.76306        -0.65113        -0.76524
C          5.06435        -1.38701        -0.58220
C          6.34984        -0.64715        -0.30095
C          7.51227        -1.38294         0.31355
C          8.84086        -0.65076         0.18048
C          9.95266        -1.29597         1.01875
C         11.23160        -0.58809         0.62433
C         -9.92882        -2.98901         0.25648
C         -8.81386        -3.66311        -0.10417
C         -7.64055        -2.92843        -0.64288
C         -6.34772        -3.66112        -0.87180
C         -5.11785        -2.85541        -1.15131
C         -3.77569        -3.56273        -1.21500
C         -2.60243        -2.80041        -0.57857
C         -1.24084        -3.56846        -0.60604
C         -0.00015        -2.85091        -1.19599
C          1.32422        -3.55625        -0.95847
C          2.51050        -2.83250        -0.77659
C          3.80128        -3.52817        -0.54315
C          5.01699        -2.83390        -0.28151
C          6.21563        -3.54008         0.01275
C          7.47857        -2.87132         0.49135
C          8.80138        -3.55603         0.82135
C          9.92313        -2.80233         0.95069
C         -8.80154        -5.16876        -0.29245
C         -7.43599        -5.83405        -0.21137
C         -6.13001        -5.03750        -0.23080
C         -4.96115        -5.83208        -0.87284
C         -3.74987        -5.06648        -1.30702
C         -2.38107        -5.78872        -1.34803
C         -1.22547        -5.06072        -0.64208
C          0.06740        -5.82255        -0.87086
C          1.33510        -5.02941        -1.13984
C          2.70776        -5.65207        -1.17122
C          3.78258        -4.94002        -0.41066
C          4.92165        -5.63884         0.05327
C          6.13405        -4.93850         0.01314
C          7.85854        -5.93996         1.10192
C          9.00817        -5.00621         1.34490
C         -7.33988        -7.15901        -0.02957
C         -5.99425        -7.79281         0.22741
C         -4.90015        -7.16999        -0.63820
C         -3.76078        -8.05031        -1.14041
C         -2.40623        -7.32775        -1.13705
C         -1.14964        -8.04669        -0.72473
C         -0.03870        -7.18194        -0.11459
C          1.24126        -7.94925         0.11201
C          2.33899        -7.22522         0.56725
C          3.66713        -7.81484         0.47634
C          4.85668        -6.94998         0.78556
C          5.98894        -7.57044         1.56346
C          7.31154        -6.91167         1.85400
C         -6.06734        -9.29129         0.13786
C         -4.97359       -10.02656        -0.10974
C         -3.68989        -9.38694        -0.40134
C         -2.54542       -10.03259        -0.08168
C         -1.14945        -9.55543        -0.41187
C         -0.13870        -9.94453         0.68045
C          1.23360        -9.35880         0.42965
C          2.38405        -9.99627         0.84071
C          3.68934        -9.33905         0.69488
C          4.91335        -9.84814         1.36863
C          5.92335        -9.05187         1.77091
O          4.56839        -1.04910        -1.92433
O         -2.30505         5.89286         1.92150
O          6.06064         7.98152         0.74181
O          7.23849         5.77116         1.15919
O         -1.17623        -4.36078         0.63184
O         -7.97235        -2.10974        -1.82261
O         -1.68506         4.78129        -1.63473
O          4.10668         1.09410         0.96953
O          6.72355         0.25224        -1.39586
O          7.83022         0.84393         1.84799
O         -1.46248        -7.88348        -2.12847
O         -3.10528         1.52782        -2.20953
O          7.29540        -5.68837        -0.15785
O          6.18957         3.27840        -1.27696
O          7.16935        -1.92706         1.61970
O         -4.67950         5.67509        -0.72570
O         -3.71590        -4.19744        -2.50357
O         -2.80523         2.96999         1.13807
O          3.00559        -6.51838        -1.97535
O         -5.77472        -4.82364         1.11779
O         -0.19357         2.21955        -2.30247
O         -5.42684         2.82308        -1.40060
O         -5.94028        -3.43831        -2.23247
O          4.17175         4.71703        -1.78477
O          2.37259         6.89906        -1.55568
O         -4.41256         7.43604         2.51223
O          4.92806        -6.79069         2.25391
O          3.88493        -8.72779        -0.62518
O          0.52430        -5.64239        -2.22061
O         -0.24572         7.07450         2.02559
O         -6.74264         5.30715         2.38906
O         -6.94262         1.40068         1.96987
O          9.70990        -0.97921         2.41728
H          8.77809        -1.24231         2.61371
O         -1.26952         0.74847         0.87714
H         -0.73888        -0.01189         1.21640
O         -5.62087        -7.46497         1.59877
H         -5.65818        -6.46083         1.66149
O         -0.59197        -9.41992         1.95063
H         -1.47791        -9.79857         2.13648
O          2.14906        -6.05636         1.24318
H          1.18615        -6.00025         1.48378
O          4.10076        10.19509         1.16317
H          4.90207         9.76536         1.53387
O         -4.06784        -8.35399        -2.52462
H         -3.23848        -8.68580        -2.93500
O         -1.07239        -0.39437        -2.60134
H         -0.86201        -1.25782        -3.03804
O         -1.91659        -5.62308        -2.71397
H         -2.57792        -6.02690        -3.31475
O          1.93871         8.11014         1.91751
H          1.24973         8.52146         2.48836
O          7.55018         3.37229         2.15352
H          8.33401         2.90198         2.53022
O         -0.18450        -1.59936         0.78626
H          0.59291        -2.08916         1.12997
O        -10.54105        -1.40988        -1.39225
H         -9.78133        -1.70192        -1.95448
O          9.24231        -0.67995        -1.19548
H          8.50858        -0.29430        -1.73289
O          4.50584         5.33213         1.77418
H          5.20689         5.61198         2.40326
O         -0.22210        -2.87641        -2.62770
H         -0.21271        -3.82507        -2.91323
O         -5.25988         3.10842         2.27765
H         -5.74174         3.52496         3.02503
O          1.34712         4.35713        -2.51044
H          1.05633         3.63916        -3.11810
O         -0.82055         9.72562         2.62353
H         -1.43971         9.22333         3.19492
O         -0.70865       -10.26111        -1.59133
H         -0.97247        -9.72041        -2.37083
O         -9.35577        -5.42907        -1.59765
H         -8.85460        -4.90313        -2.25581
O         -9.77917         5.35816         1.85967
H         -9.44916         5.34135         2.78198
O         -9.31519         0.70105         2.93408
H         -8.35631         0.92598         3.01941
O          2.28114         9.85330        -1.98087
H          2.16946         8.88967        -2.13910
O         -7.24987         1.11560        -1.71758
H         -6.74309         0.91690        -2.53296
O         -0.50650        -6.78416         1.21657
H         -0.57699        -7.62405         1.74962
O          1.27957         4.53950         1.11069
H          1.13238         5.25996         1.76311
O         10.12028         1.95397         2.26518
H         10.05928         1.10135         2.76015
O         -0.01581         6.65962        -1.63577
H          0.18192         5.98585        -2.33037
O          9.32461        -4.94751         2.73605
H          8.59875        -4.49010         3.20798
O         -3.79101        -0.84782        -2.84505
H         -3.14550        -0.17538        -3.18371
O         -3.02296        -2.66942         0.81599
H         -2.51908        -3.33844         1.34149
H         12.13957        -1.17374         0.41560
H         12.15930         1.28015         0.23386
H         10.82416         3.28676        -0.41026
H          9.50385         5.24438        -1.19492
H          7.94673         7.26113        -1.96582
H          6.76828         9.71760        -2.07963
H          4.68463        10.77522        -1.75353
H          2.38094        11.19478        -0.42159
H         -0.13348        11.11295         0.17368
H         -2.50180        11.04577         0.65866
H         -4.97557        11.01207         0.56443
H         -7.08207         9.81995         0.50627
H         -8.39182         7.58848         0.59199
H         -9.13420         4.90526        -0.03674
H        -10.71775         3.07105         1.50292
H        -11.90866         0.81609         1.90007
H        -12.16923        -1.30736         0.74512
H        -10.82356        -3.55307         0.56506
H         -9.48839        -5.65234         0.44688
H         -8.24326        -7.78582         0.03889
H         -7.02441        -9.77829         0.37839
H         -5.00609       -11.12627        -0.06769
H         -2.62297       -11.03487         0.37299
H         -0.08621       -11.06295         0.74704
H          2.33333       -10.98971         1.30716
H          4.96368       -10.92743         1.58220
H          6.79179        -9.50956         2.27008
H          7.75359        -7.14664         2.83383
H          9.91514        -5.41776         0.82575
H         10.84217        -3.31427         1.28170
