         324
 CSIRO Nanostructure Databank - Neutral Graphene Oxide Data Set
C          1.05794         2.18129         0.07388
C          1.08691         3.54415         0.35499
C          2.21197         1.52239        -0.35829
C          2.27429         4.29128         0.20656
C          1.13130         6.42694         0.96509
C          1.15818         7.70117         1.43503
C          2.33741         5.69445         0.64239
C          2.41401         8.33558         1.85960
C          1.24345        10.59016         2.21564
C          1.33338        11.92124         2.50414
C          2.46932         9.80749         2.17578
C          2.57397        12.62168         2.42063
C          1.26536        15.51303         1.53671
C          1.24798        16.57718         0.63296
C          2.45997        14.82847         1.76968
C          2.45850        17.03897         0.09278
C          2.49926        18.26907        -0.66108
C          3.40681         2.23258        -0.52198
C          3.43621         3.61607        -0.25391
C          4.62094         1.50281        -1.05792
C          4.70607         4.35431        -0.41465
C          3.55375         6.35263         0.72540
C          3.70138         7.64367         1.42762
C          4.75708         5.75037         0.13778
C          4.96047         8.44341         1.25754
C          3.79831        10.60438         1.94654
C          3.74066        12.08347         1.87196
C          4.97742         9.88766         1.42047
C          4.88870        12.84965         1.39113
C          3.66694        15.10464         1.08271
C          3.67372        16.33458         0.35499
C          4.86982        14.27926         1.14042
C          4.92148        16.96457         0.04513
C          3.68290        18.85948        -0.98771
C          4.93634        18.27478        -0.58620
C          5.93422         2.20416        -0.79548
C          5.97475         3.58604        -0.53709
C          7.13698         1.48386        -0.84514
C          7.21716         4.24049        -0.42805
C          6.06853         6.31553         0.56435
C          6.10263         7.75813         0.88768
C          7.31189         5.61120         0.12863
C          7.41675         8.39594         0.88838
C          6.10272        10.64834         1.10120
C          6.07776        12.11140         1.06499
C          7.38360         9.92387         0.93244
C          7.27662        12.81862         0.73222
C          6.08898        14.95174         0.81120
C          6.10476        16.33129         0.41987
C          7.32240        14.22592         0.73926
C          7.37074        17.14911         0.48887
C          6.13661        18.92400        -0.82896
C          7.38476        18.37263        -0.40763
C          8.37519         2.12987        -0.74716
C          8.42708         3.53277        -0.59794
C          9.63390         1.30220        -0.75898
C          9.69453         4.25732        -0.66910
C          8.55999         6.38493        -0.06862
C          8.59535         7.70244         0.30377
C          9.74330         5.66568        -0.54595
C          9.92907         8.41898         0.37206
C          8.52281        10.59186         0.26138
C          8.46262        12.10506         0.20354
C          9.81060         9.91147         0.13728
C          9.75931        12.78663         0.15682
C          8.58586        14.92562         0.55808
C          8.63876        16.34393         0.38127
C          9.77530        14.17276         0.43692
C          9.83079        17.01475         0.09645
C          8.57590        19.00701        -0.68235
C          9.85592        18.37962        -0.42685
C         10.91117         2.09878        -0.60399
C         10.90892         3.54013        -0.84311
C         12.04324         1.44721        -0.21516
C         12.11907         4.25264        -1.03266
C         10.93770         6.38692        -0.85102
C         10.90322         7.81982        -0.61991
C         12.14397         5.67431        -1.18176
C         11.77764         8.67672        -1.24492
C         10.93264        10.65420        -0.23446
C         10.94418        12.08317        -0.12170
C         12.09017        10.00189        -0.79863
C         12.23672        12.72893        -0.16300
C         11.07739        14.79675         0.55937
C         11.10878        16.38217         0.35618
C         12.28243        14.07889         0.20508
C         12.36538        16.95752        -0.11596
C         11.04071        19.00944        -0.72428
C         12.35443        18.28071        -0.83657
C         13.36862         2.04670        -0.42092
C         13.38469         3.50566        -1.00237
C         14.55315         1.61885         0.29685
C         14.65227         4.23674        -0.90586
C         13.43707         6.29045        -1.53378
C         13.56104         7.66955        -1.95227
C         14.64190         5.59838        -1.36641
C         14.67679         8.48606        -1.81274
C         13.35328        10.64112        -0.96002
C         13.42998        11.97844        -0.49332
C         14.57855         9.98251        -1.61858
C         14.74789        12.60477        -0.21332
C         13.54387        14.82372         0.37290
C         13.54648        16.27748         0.06612
C         14.81606        14.05924         0.18666
C         14.81437        16.96978        -0.01167
C         13.60279        19.06469        -0.52177
C         14.78494        18.42534        -0.21440
C         15.78060         2.27370         0.11374
C         15.81230         3.54949        -0.56783
C         16.99332         1.77611         0.67197
C         17.12278         4.10722        -0.94150
C         15.89635         6.23916        -1.80958
C         15.95571         7.76525        -2.01506
C         17.16359         5.44698        -1.63989
C         17.28023         8.49075        -2.11823
C         15.91722        10.72268        -1.59918
C         16.00013        11.96256        -0.72270
C         17.25820        10.03472        -1.94587
C         17.21580        12.84346        -0.84499
C         16.06674        14.84928         0.01672
C         16.00852        16.29211         0.16040
C         17.24391        14.19905        -0.23391
C         17.24224        17.07457         0.55120
C         16.04119        19.12648        -0.23602
C         17.25714        18.48714        -0.02938
C         18.26074         2.38795         0.45541
C         18.34579         3.52781        -0.38262
C         19.43668         1.84564         1.08555
C         19.64947         4.08799        -0.76510
C         18.46870         6.18685        -1.74671
C         18.50778         7.66310        -1.90578
C         19.74451         5.46883        -1.38431
C         19.77822         8.15702        -2.13933
C         18.51934        10.75634        -1.58110
C         18.50142        12.18648        -1.19933
C         19.76777        10.30269        -1.94678
C         19.78719        12.91169        -1.02638
C         18.58314        14.78310         0.15537
C         18.57060        16.31513         0.35055
C         19.74531        14.24992        -0.68288
C         19.79239        17.11325         0.03713
C         18.47347        19.20217        -0.18595
C         19.73625        18.58542        -0.14536
C         20.70311         2.41010         0.92798
C         20.84886         3.52390        -0.04075
C         21.87792         1.90413         1.54278
C         22.04455         4.39827         0.09027
C         21.01104         6.24962        -1.22662
C         21.03133         7.64355        -1.62103
C         22.14063         5.58971        -0.78048
C         22.14225         8.49079        -1.32650
C         21.02267        10.79600        -1.41450
C         21.04383        12.19417        -1.16117
C         22.17466         9.96831        -1.20772
C         22.27617        12.83025        -0.89954
C         20.94498        15.05588        -0.87567
C         21.01148        16.44701        -0.45431
C         22.31990        14.28389        -0.99437
C         22.21200        17.13604        -0.42016
C         20.95496        19.27097        -0.25403
C         22.21031        18.58552        -0.23468
C         23.16687         2.46884         1.35718
C         23.27302         3.80713         0.70841
C         24.32230         1.90560         1.90160
C         24.59724         4.30880         0.26359
C         23.44142         6.20263        -0.93664
C         23.41155         7.76980        -1.13468
C         24.65993         5.53587        -0.44072
C         24.59637         8.42224        -0.52160
C         23.36792        10.65165        -0.76780
C         23.44402        12.06493        -0.62811
C         24.58502         9.91055        -0.37052
C         24.66123        12.75509        -0.17230
C         23.49232        14.99591        -0.52325
C         23.46242        16.40852        -0.38643
C         24.57999        14.21585        -0.01614
C         24.63514        17.12015        -0.00168
C         23.42286        19.26363        -0.08737
C         24.65336        18.55201         0.08309
C         25.61911         2.50046         1.69854
C         25.72077         3.56868         0.71105
C         26.77675         2.05543         2.31513
C         27.03606         3.81244         0.21755
C         25.88048         6.28629        -0.64704
C         25.88185         7.70380        -0.58301
C         27.13548         5.64761        -0.70743
C         27.09699         8.41850        -0.49846
C         25.89547        10.59922        -0.28267
C         25.87818        12.03491        -0.04274
C         27.07422         9.86466        -0.33864
C         27.18264        12.64805         0.16000
C         25.55067        14.98733         0.64283
C         25.77091        16.38108         0.42912
C         27.34953        13.97253         0.67997
C         27.02228        17.01255         0.69683
C         25.86774        19.17661         0.41166
C         27.06425        18.43908         0.64400
C         28.08839         2.80078         2.21616
C         28.19407         3.62770         0.95204
C         29.32721         1.93692         2.33161
C         29.44968         4.26796         0.61257
C         28.35337         6.29065        -0.41646
C         28.33148         7.70098        -0.43916
C         29.55116         5.55028        -0.02842
C         29.62514         8.37769        -0.61858
C         28.39094        10.49800         0.04604
C         28.39625        11.98902        -0.06536
C         29.63403         9.88746        -0.55155
C         29.63153        12.69930        -0.09972
C         28.36971        14.82546         0.34590
C         28.30130        16.24312         0.81652
C         29.59469        14.18346        -0.15754
C         29.58473        17.00934         0.84302
C         28.29363        19.14627         0.84451
C         29.52902        18.49772         0.93375
C         30.50622         2.37673         1.83969
C         30.62642         3.64441         1.12419
C         31.87481         4.25436         0.92772
C         30.81065         6.22765        -0.05208
C         30.88081         7.64407        -0.41766
C         31.96220         5.53046         0.37500
C         32.05173         8.39129        -0.42635
C         30.91639        10.58375        -0.33580
C         30.87742        12.02733        -0.15491
C         32.06999         9.81537        -0.41388
C         32.07619        12.78868         0.05497
C         30.92152        14.97687        -0.06178
C         30.88963        16.49587         0.21072
C         32.09715        14.15184         0.19495
C         32.03415        17.08286         1.00663
C         30.74207        19.14837         1.21302
C         31.94187        18.39371         1.38508
O         15.03672        10.82320        -2.74201
O         24.31884         9.01546         0.79333
O         12.39401         8.26110        -2.41985
O         14.30198        14.34342         1.53721
O          7.76637         9.14864         2.11091
O         26.37293        14.38520         1.59270
O          8.13040        11.28614        -0.97729
O         19.89258         9.30881        -2.90740
O         15.81940         6.82565        -3.14077
O         22.42462         4.77404         1.45859
O         11.21463        15.73883         1.65106
O         19.49028        16.67845         1.44846
O         20.57071         3.12851        -1.41344
O         17.67144        12.91926        -2.23833
O         29.53471         9.23685        -1.83684
O          3.38625        10.10714         3.26127
O         17.18022         4.24463        -2.43806
O         30.25860        14.71372        -1.34925
O          6.83664         5.53869         1.54750
O         27.15959         4.30560        -1.09634
O         15.59936        11.73257         0.65399
O         13.53858         2.34377        -1.85350
O         19.30472         5.52865        -2.77226
O         29.10064        16.38868         2.07125
O         23.70027         6.86024        -2.21575
O         17.27512         9.40701        -3.24858
O          3.20346         7.55633         2.80553
O         21.62954        14.82382        -2.14528
O          4.65440         5.52135        -1.31760
O          2.48956        13.94825         2.85209
O         30.96729        17.14747        -1.08855
H         30.61806        16.50879        -1.75377
O         28.54283        10.22718         1.48797
H         27.75224        10.58418         1.94706
O         10.43761         8.21496         1.72792
H          9.71522         8.49145         2.33971
O         12.46255        17.95684        -2.28246
H         13.36660        17.60908        -2.43921
O         28.12498         3.71649         3.36975
H         28.99394         4.17127         3.35023
O         17.07703        17.26595         1.98346
H         17.97997        17.40671         2.35333
O         18.83011        14.19871         1.47153
H         19.25567        14.89956         2.02058
O          7.36810        17.68399         1.86368
H          8.20189        18.18768         1.98229
O          4.65677         0.15770        -0.56946
H          4.74741         0.18555         0.40478
O          9.54429         0.27283         0.23803
H          9.38781         0.70009         1.10490
H          0.12238         1.61914         0.20050
H          0.17080         4.02797         0.71850
H          2.19286         0.44556        -0.57585
H          0.15884         5.98272         0.71246
H          0.21562         8.25947         1.51977
H          0.26384        10.11323         2.08322
H          0.42971        12.51517         2.69779
H          0.36403        15.23434         2.09759
H          0.31527        17.12334         0.43410
H          1.54529        18.74644        -0.92892
H          4.50273         1.42280        -2.17595
H          3.69972        19.81677        -1.52847
H          7.10328         0.39269        -0.97470
H          6.13806        19.87649        -1.38070
H          9.69871         0.76929        -1.74826
H          8.56759        19.97319        -1.21005
H         11.97631         0.39595         0.10492
H         11.00865        20.03558        -1.12193
H         14.47628         0.78006         1.00399
H         13.61292        20.14406        -0.73838
H         16.95596         0.84881         1.26255
H         16.03703        20.18866        -0.52702
H         19.31345         0.97563         1.74705
H         18.41878        20.28174        -0.39668
H         21.79143         0.99665         2.15964
H         20.95022        20.37035        -0.29947
H         24.24894         0.98189         2.49477
H         23.42369        20.35961         0.00894
H         26.71615         1.23299         3.04374
H         25.91016        20.27491         0.46580
H         29.27615         1.00320         2.91143
H         28.26100        20.24557         0.89110
H         31.42690         1.79538         2.00294
H         32.78625         3.74820         1.27679
H         32.94738         6.01185         0.31128
H         33.02327         7.88331        -0.34556
H         33.05470        10.30035        -0.34954
H         33.01825        12.24127         0.20143
H         33.02417        14.63469         0.53550
H         32.97732        16.53440         1.13922
H         30.75174        20.23266         1.39591
H         32.81272        18.89278         1.83572
