         324
 CSIRO Nanostructure Databank - Neutral Graphene Oxide Data Set
C          1.35955         2.17356         0.96980
C          1.27470         3.54745         0.59867
C          2.52840         1.46151         0.84554
C          2.33724         4.20086         0.00120
C          1.10660         6.32744        -0.38319
C          1.07473         7.72090        -0.48116
C          2.31726         5.62164        -0.31653
C          2.25295         8.47841        -0.45637
C          1.04794        10.73940        -0.19079
C          1.09669        12.10119         0.13101
C          2.21223         9.92825        -0.23365
C          2.27921        12.68387         0.65336
C          1.35016        14.82649         1.45791
C          1.42594        16.16383         1.84825
C          2.47609        14.10965         1.01783
C          2.62408        16.88715         1.72079
C          2.73769        18.23095         2.21363
C          3.70574         2.07514         0.30404
C          3.56582         3.43195        -0.25984
C          4.94436         1.45938         0.33838
C          4.85885         4.21150        -0.54923
C          3.54817         6.35408        -0.46831
C          3.51415         7.78690        -0.47242
C          4.80500         5.68417        -0.52283
C          4.75480         8.50251        -0.54720
C          3.42998        10.53400         0.14181
C          3.34735        11.78107         0.77063
C          4.71010         9.98244        -0.40514
C          5.20694        12.86520         0.67142
C          3.72303        14.83594         0.86441
C          3.76243        16.25749         1.11966
C          4.97126        14.23733         0.49443
C          4.94817        17.02411         0.92794
C          3.93551        18.88928         2.18884
C          5.08500        18.30773         1.55153
C          6.16772         2.16293         0.05913
C          6.13882         3.54872        -0.27947
C          7.41060         1.52984         0.25771
C          7.33705         4.29510        -0.39194
C          6.01717         6.39898        -0.63061
C          5.96958         7.82664        -0.70471
C          7.28992         5.70911        -0.65953
C          7.21713         8.54554        -1.05465
C          5.99635        10.77859        -0.53626
C          6.18008        12.16317        -0.03602
C          7.25080        10.07115        -0.98499
C          7.35003        12.91398        -0.35967
C          6.05734        14.99537        -0.14098
C          6.04155        16.53416         0.08864
C          7.34345        14.29783        -0.34801
C          7.31211        17.37858        -0.12032
C          6.31905        18.98003         1.55239
C          7.47643        18.47461         0.91347
C          8.62793         2.23558         0.09960
C          8.59195         3.62740        -0.24282
C          9.88241         1.60055         0.28170
C          9.81219         4.32583        -0.47626
C          8.50740         6.41198        -0.87379
C          8.51105         7.85265        -1.03244
C          9.74428         5.71050        -0.86541
C          9.68486         8.58729        -1.21076
C          8.55972        10.71857        -0.81610
C          8.59341        12.11026        -0.35109
C          9.74303        10.02689        -1.05711
C          9.89929        12.83658        -0.28595
C          8.61218        15.05103        -0.46932
C          8.60516        16.55521        -0.32378
C          9.88450        14.30089        -0.31383
C          9.91009        17.11956         0.24569
C          8.69941        19.12599         1.03035
C          9.92073        18.63877         0.45431
C         11.09218         2.28485         0.05645
C         11.05360         3.64809        -0.35556
C         12.35419         1.62774         0.27546
C         12.31200         4.32120        -0.74669
C         10.95811         6.41420        -1.12917
C         10.93097         7.85120        -1.48993
C         12.18495         5.80352        -0.89382
C         12.23103         8.62595        -1.66546
C         11.03727        10.73772        -1.02544
C         11.10656        12.11461        -0.70418
C         12.25206        10.06774        -1.32297
C         12.33359        12.84140        -0.76519
C         11.12052        14.95853        -0.32993
C         11.11251        16.40849        -0.34184
C         12.34428        14.24426        -0.50273
C         12.25882        17.03191        -0.77351
C         11.04108        19.45937         0.50515
C         12.30157        19.12104        -0.11426
C         13.59066         2.16480        -0.05793
C         13.63249         3.52109        -0.71354
C         14.78473         1.46674         0.35216
C         14.97753         4.20223        -0.82512
C         13.30612         6.67955        -0.74997
C         13.48127         7.91002        -1.32235
C         15.17964         5.56623        -0.60651
C         14.81908         8.53541        -1.59158
C         13.50485        10.74159        -1.25654
C         13.53588        12.14452        -1.08460
C         14.75166        10.03649        -1.58451
C         14.76622        12.93543        -1.33573
C         13.64116        14.98749        -0.28313
C         13.55875        16.44385        -0.70083
C         14.88301        14.31944        -0.83830
C         14.71643        17.21335        -0.65441
C         13.59406        19.34730         0.27477
C         14.74913        18.62206        -0.26203
C         16.04456         1.62164        -0.25170
C         16.13501         3.54185        -1.25924
C         17.32594         1.40673         0.27795
C         17.40689         4.14450        -1.15802
C         16.27267         6.29573        -1.08889
C         16.17823         7.73665        -1.49447
C         17.48011         5.55793        -1.19364
C         17.51000         8.40631        -1.38897
C         15.81147        10.79785        -1.99558
C         16.02438        12.23916        -1.77157
C         17.67457         9.74736        -1.75204
C         17.38270        12.81776        -1.46171
C         16.04112        15.00844        -1.02569
C         16.00171        16.49855        -0.93241
C         17.35413        14.37620        -1.58159
C         17.30728        17.21860        -0.75118
C         15.97943        19.23059        -0.04087
C         17.24029        18.58501        -0.18711
C         18.53771         2.01355        -0.21249
C         18.61848         3.29520        -0.99867
C         19.72798         1.47803         0.26707
C         19.95102         4.07791        -0.92721
C         18.73727         6.26864        -1.06197
C         18.68904         7.71161        -1.00259
C         19.93114         5.56896        -0.89688
C         19.87628         8.46822        -0.78288
C         18.68659        10.60559        -1.25495
C         18.55000        12.09032        -1.25378
C         19.84067         9.90190        -0.82781
C         19.85106        12.83346        -1.04821
C         18.57838        15.08021        -0.98154
C         18.55053        16.41011        -0.60503
C         19.87194        14.34918        -1.00623
C         19.71877        17.10537        -0.09967
C         18.39470        19.20172         0.22890
C         19.64394        18.49792         0.25324
C         21.01332         2.10178         0.14074
C         21.12546         3.40447        -0.34930
C         22.16703         1.39376         0.61251
C         22.44943         4.12016        -0.53155
C         21.10509         6.29868        -0.48035
C         21.06928         7.73119        -0.41596
C         22.29403         5.59595        -0.11284
C         22.22231         8.43739         0.02157
C         21.09574        10.65783        -0.66654
C         21.05333        12.12028        -0.54077
C         22.31181         9.90412        -0.18367
C         22.20721        12.80944        -0.07856
C         21.16347        15.07851        -0.57715
C         20.94581        16.42338         0.08920
C         22.18785        14.20268         0.10904
C         22.04956        17.09230         0.63071
C         20.79093        19.19424         0.62625
C         22.02956        18.52209         0.80178
C         23.43535         1.96252         0.58553
C         23.64714         3.37522         0.10283
C         24.60217         1.27226         0.95774
C         24.59264         4.14445         1.00871
C         23.35464         6.31409         0.44418
C         23.33118         7.73197         0.49635
C         24.58396         5.61260         0.89801
C         24.54671         8.46667         0.94625
C         23.40056        10.69312         0.41921
C         23.40536        12.06670         0.35333
C         24.58081         9.96047         0.91691
C         24.62374        12.79195         0.74152
C         23.30054        14.85375         0.83245
C         23.22995        16.32939         1.10643
C         24.60139        14.14981         0.92397
C         24.48687        17.09032         1.45356
C         23.20575        19.25392         0.99207
C         24.48961        18.60397         1.26453
C         25.86499         1.94119         0.88849
C         25.76884         3.38138         0.43582
C         27.05816         1.29617         1.10769
C         27.08709         4.11296         0.27663
C         25.85954         6.30800         0.56153
C         25.84807         7.78845         0.66952
C         27.14806         5.57784         0.52144
C         27.10961         8.50282         0.84238
C         25.88372        10.64743         0.83750
C         25.89057        12.05086         0.85167
C         27.10775         9.90390         0.86119
C         27.12883        12.73290         0.93161
C         25.78778        14.83622         1.58252
C         25.81897        16.36774         1.41713
C         27.14442        14.18163         1.23423
C         27.04209        17.13043         0.96266
C         25.72070        19.25336         0.82361
C         26.87243        18.52930         0.46894
C         28.35000         2.04435         1.27012
C         28.36888         3.37942         0.55856
C         29.62862         1.29122         0.97967
C         29.61451         4.15674         0.74072
C         28.32539         6.26220         0.67698
C         28.36236         7.71659         1.12150
C         29.60176         5.56334         0.67005
C         29.60344         8.44944         0.66321
C         28.35592        10.60911         0.73756
C         28.35824        12.02570         0.74457
C         29.57203         9.86746         0.53195
C         29.57668        12.72224         0.41907
C         28.40619        14.94657         0.91621
C         28.33276        16.42144         0.62481
C         29.61594        14.19483         0.41225
C         29.27510        17.03288        -0.36576
C         27.82389        19.08762        -0.38603
C         28.74046        18.20337        -1.17503
C         30.78585         1.97546         0.84980
C         30.82635         3.43871         0.84677
C         32.03201         4.16093         0.87007
C         30.82916         6.28068         0.66678
C         30.80489         7.74135         0.49477
C         32.02908         5.55414         0.77331
C         31.97040         8.46022         0.12553
C         30.74753        10.56826         0.13650
C         30.69413        12.00521        -0.03537
C         31.93820         9.83003        -0.06548
C         31.67886        12.67104        -0.85840
C         30.65355        14.87526        -0.49523
C         30.36855        16.24353        -1.00809
C         31.57255        13.98022        -1.20892
C         31.13745        16.85545        -1.94961
C         29.83394        18.92528        -1.91458
C         30.92454        18.24331        -2.32143
O          5.00762        10.74799        -1.63812
O         26.72798        16.97306         2.38059
O         22.14531        10.21770        -1.62172
O         25.71862         7.11320        -0.66666
O         15.46027         7.92380        -2.76017
O          5.60755        15.93434        -1.16574
O          7.07920         9.38707        -2.25273
O          4.42668        12.15579         1.57678
O         11.48265         8.18648        -2.83040
O         15.20535        12.96086        -2.77179
O         24.86628         3.28545        -0.82112
O         30.83490        14.78113         0.95615
O         28.11845        14.54135         2.28523
O         22.85222        15.38555         2.17036
O          9.27384        12.25875         0.95980
O         24.41304         9.19630         2.19565
O         12.15460        18.33045        -1.26889
O         19.50368         3.36814        -2.14207
O          4.07449         3.58657        -1.62173
O         16.82433        10.21820        -2.74394
O         16.69587        17.12029        -2.07567
O         27.87844         3.52215        -0.80598
O         12.88638         3.64589        -1.95642
O         20.12818        13.64479        -2.27136
O          8.69141        15.99720        -1.64864
O         16.05125         2.18688        -1.54817
O         14.26278         6.25419         0.16886
O         24.47022         4.90526         2.21700
O         29.47703        17.22753         1.06050
O         24.39526        17.93569         2.60945
O          7.10776        18.09980        -1.35687
H          7.00678        17.42032        -2.06169
O         28.40115         2.41189         2.69540
H         28.49725         1.58686         3.21578
O         17.38575        14.64088        -2.99622
H         16.57729        14.23457        -3.38702
O         21.85599        15.45543        -1.82029
H         21.57235        14.79391        -2.49931
O         25.59307        14.60273         2.99127
H         26.32000        15.07992         3.45292
O          9.87664        16.63502         1.63881
H         10.74700        16.82078         2.05093
O         22.67017         4.16287        -1.96170
H         23.62635         3.99326        -2.12407
O         27.88978        17.55148        -2.20041
H         27.63807        18.23617        -2.85622
O         13.81052        15.02665         1.18454
H         14.61577        15.55242         1.37838
O         28.44243         7.63945         2.59531
H         28.53580         8.55437         2.93746
H          0.47402         1.69480         1.41037
H          0.34039         4.08627         0.80988
H          2.58562         0.41992         1.19301
H          0.15469         5.78082        -0.33650
H          0.10070         8.22874        -0.50674
H          0.08462        10.31429        -0.50646
H          0.18948        12.71002         0.00760
H          0.39076        14.29910         1.55725
H          0.53949        16.65928         2.26948
H          1.85418        18.69892         2.67158
H          5.01846         0.42803         0.71535
H          4.03098        19.89194         2.62975
H          7.43684         0.46573         0.53522
H          6.40279        19.92111         2.11752
H          9.90863         0.54159         0.57892
H          8.73665        20.06764         1.60201
H         12.32474         0.61989         0.71728
H         10.93788        20.44021         0.99788
H         14.69819         0.78223         1.21099
H         13.79828        20.06821         1.08082
H         17.42490         0.75813         1.16264
H         15.98874        20.25031         0.37287
H         19.68728         0.52672         0.81866
H         18.36388        20.23534         0.60305
H         22.04262         0.36373         0.97700
H         20.73529        20.27669         0.80934
H         24.54903         0.22262         1.28081
H         23.17015        20.35195         0.93708
H         27.04131         0.22951         1.38531
H         25.61115        20.26527         0.40241
H         29.62029         0.19052         0.97477
H         27.68731        20.12877        -0.71876
H         31.73745         1.43697         0.72195
H         32.98815         3.62269         0.94151
H         32.99165         6.08405         0.78472
H         32.91709         7.92442        -0.02738
H         32.86385        10.35028        -0.34679
H         32.43625        12.05202        -1.35933
H         32.22268        14.38746        -1.99564
H         31.99175        16.33322        -2.40247
H         29.68831        19.98123        -2.18742
H         31.69897        18.73665        -2.92611
