         615
 CSIRO Nanostructure Databank - Neutral Graphene Oxide Data Set
C         22.91746        69.77896         0.39120
C         22.84398        71.13268         0.74040
C         21.64379        71.82423         1.00073
C         22.79095        73.98108         1.26516
C         21.64072        73.21759         1.23675
C         25.43701        65.59179        -0.40006
C         25.40513        67.03214        -0.30911
C         24.19927        67.70546        -0.03840
C         25.39292        69.82729         0.14273
C         24.16830        69.10637         0.15762
C         25.33414        71.33420         0.20562
C         24.12130        71.85070         0.94211
C         25.34316        74.12111         0.95645
C         24.11044        73.36063         1.21537
C         27.72620        61.30531        -0.31657
C         27.81162        62.71571        -0.12531
C         26.64989        63.46033        -0.39835
C         27.92862        65.55435        -0.84338
C         26.61464        64.87909        -0.51090
C         27.86304        67.09249        -0.79998
C         26.61158        67.77663        -0.41514
C         27.86918        69.90288        -0.06459
C         26.62090        69.17079        -0.13019
C         27.87566        71.30347         0.43131
C         26.59595        72.00055         0.71121
C         27.81091        74.18545         0.81066
C         26.56988        73.49231         0.80095
C         30.34123        57.07182        -0.69281
C         30.25709        58.43792        -0.47194
C         28.96713        59.09021        -0.58793
C         30.59781        61.38901         0.21943
C         28.70654        60.32953        -0.00308
C         30.42314        62.84537         0.22867
C         29.05712        63.49813         0.22910
C         30.35700        65.71852        -0.14621
C         29.00937        65.04587         0.12734
C         30.40059        67.10576        -0.36637
C         29.14839        67.85978        -0.63982
C         30.33883        70.00617        -0.11706
C         29.10939        69.29026        -0.25220
C         30.36384        71.39006         0.16670
C         29.06454        72.14495         0.03133
C         30.26865        74.18959         0.80910
C         29.05367        73.53765         0.61919
C         32.80169        52.80067        -0.49856
C         32.80232        54.17982        -0.71644
C         31.58362        54.91949        -0.76894
C         32.81101        57.02534        -0.85123
C         31.57805        56.32950        -0.76692
C         32.81682        58.48694        -0.65195
C         31.54098        59.20659        -0.30459
C         32.63682        61.49318        -1.14528
C         31.57571        60.70102        -0.40459
C         32.78506        62.90196        -0.55616
C         31.63435        63.59175        -0.14594
C         32.82516        65.71503        -0.18284
C         31.59200        65.01235        -0.12082
C         32.83629        67.14614        -0.14350
C         31.61640        67.82987        -0.29214
C         32.85081        70.00150         0.07503
C         31.62851        69.32742        -0.50787
C         32.82467        71.38166         0.40167
C         31.56092        72.08958         0.40219
C         32.71265        74.18415         0.99696
C         31.53748        73.51020         0.71784
C         35.26321        48.47036        -0.49570
C         35.24391        49.90063        -0.48511
C         34.05785        50.60953        -0.35686
C         35.30202        52.77105        -0.57684
C         34.05355        52.08542        -0.08551
C         35.27138        54.15583        -0.86201
C         34.06317        54.89200        -0.85077
C         35.27161        57.05959        -0.98690
C         34.05888        56.33205        -0.94947
C         35.30066        58.51966        -1.25114
C         33.98203        59.24085        -1.22560
C         35.30711        61.45878        -1.25269
C         33.97512        60.75037        -1.31085
C         35.29308        62.93239        -0.96483
C         34.01665        63.60868        -0.59790
C         35.27617        65.67134         0.10966
C         34.03051        64.97657        -0.27136
C         35.30031        67.15161         0.13231
C         34.08105        67.85992        -0.00684
C         35.28745        69.97123         0.43773
C         34.06627        69.28479         0.15549
C         35.27109        71.37930         0.67206
C         34.02805        72.05820         0.72146
C         35.22538        74.26416         0.57677
C         34.03084        73.49399         1.18711
C         37.68737        44.22793         0.04460
C         37.66637        45.56536        -0.29866
C         36.46252        46.32786        -0.33706
C         37.72951        48.45313        -0.59198
C         36.46204        47.73558        -0.50218
C         37.72921        49.88422        -0.63299
C         36.51424        50.61237        -0.56564
C         37.76914        52.72952        -0.81603
C         36.51334        52.03615        -0.64813
C         37.80220        54.13766        -0.96099
C         36.53483        54.84254        -1.18755
C         37.79336        57.10483        -0.80573
C         36.53072        56.36866        -1.22419
C         37.80314        58.57044        -1.16809
C         36.59643        59.27584        -1.19639
C         37.81323        61.39421        -0.76386
C         36.57924        60.70205        -1.09834
C         37.80508        62.76306        -0.39385
C         36.59369        63.56846        -0.55569
C         37.81970        65.64221         0.12946
C         36.55553        64.90838         0.09759
C         37.77745        67.06382         0.62672
C         36.50993        67.82859         0.32231
C         37.73417        69.97221         0.65842
C         36.51983        69.25268         0.45792
C         37.72129        71.35639         0.90129
C         36.50825        72.08676         0.88059
C         37.70963        74.23369         0.92417
C         36.53297        73.53502         0.85475
C         40.22534        39.94356         0.84946
C         40.14119        41.29035         0.38482
C         38.96828        42.01973         0.38444
C         40.17069        44.15708        -0.30994
C         38.97791        43.52716         0.36534
C         40.20103        45.51931        -0.51409
C         38.91361        46.25010        -0.82089
C         40.18104        48.42610        -0.60535
C         38.94597        47.74344        -0.58380
C         40.21410        49.82634        -0.77507
C         38.98045        50.57680        -0.79665
C         40.21372        52.71883        -1.19433
C         38.97403        51.98307        -0.90900
C         40.24997        54.18238        -1.02514
C         39.02793        54.86323        -1.02085
C         40.35945        57.06981        -1.06447
C         39.03105        56.33061        -1.20500
C         40.35529        58.54926        -0.89390
C         39.11731        59.30763        -1.37807
C         40.30888        61.44553        -0.64370
C         39.04930        60.69783        -0.79064
C         40.31079        62.78823        -0.06155
C         38.97933        63.40472         0.30855
C         40.23080        65.58974         0.40321
C         39.01275        64.92293         0.17521
C         40.30202        67.04793         0.22626
C         39.01342        67.81397         0.18697
C         40.29835        69.97723         0.68600
C         39.02150        69.29517         0.38463
C         40.28005        71.35451         0.99608
C         38.99274        72.04137         1.21007
C         40.28767        74.23361         1.03184
C         38.99094        73.57955         1.24030
C         42.73605        36.08799         2.57229
C         42.69791        37.31559         1.89765
C         41.50086        38.00438         1.65123
C         42.70105        39.94446         0.67522
C         41.45666        39.28269         1.01803
C         42.69583        41.27237         0.18982
C         41.40035        41.89952        -0.11969
C         42.69251        44.08574        -0.50293
C         41.40595        43.38168        -0.47372
C         42.66573        45.50743        -0.51600
C         41.45900        46.20973        -0.57913
C         42.72603        48.38342        -0.68569
C         41.45628        47.68918        -0.25480
C         42.70049        49.81927        -0.86939
C         41.47957        50.50047        -0.88001
C         42.72622        52.69286        -0.78079
C         41.50906        51.94939        -1.14655
C         42.69436        54.06762        -0.58416
C         41.49794        54.86303        -0.80320
C         42.66504        56.97805        -0.08377
C         41.51787        56.26453        -0.67113
C         42.69355        58.47255        -0.05479
C         41.50941        59.20462        -0.56989
C         42.82919        61.34043         0.03307
C         41.63080        60.68118        -0.56433
C         42.77343        62.73630         0.30151
C         41.49092        63.41493         0.28835
C         42.74668        65.57685         0.98616
C         41.42804        64.82635         0.74372
C         42.77983        67.04706         0.90911
C         41.57145        67.79942         0.52185
C         42.70749        69.94634         1.06491
C         41.51345        69.26457         0.75554
C         42.72898        71.36362         1.14745
C         41.49167        72.07214         1.13107
C         42.75378        74.19900         1.05088
C         41.47670        73.52629         1.10280
C         45.20658        33.57979         3.89055
C         43.98839        34.17660         3.52656
C         45.21704        36.07243         2.58111
C         43.96518        35.42303         2.87274
C         45.22976        37.33324         1.93440
C         43.96965        37.82205         1.26082
C         45.14484        39.97229         0.76706
C         43.95920        39.29992         0.94962
C         45.19900        41.19632        -0.11374
C         43.90015        41.97250        -0.09482
C         45.17887        44.00626        -0.79681
C         43.89675        43.33764        -0.44518
C         45.19563        45.53975        -0.81856
C         43.95766        46.24163        -0.26107
C         45.19828        48.33564        -0.95180
C         43.90504        47.69239        -0.65602
C         45.21375        49.83908        -1.15907
C         43.93845        50.56360        -0.96017
C         45.22132        52.72088        -0.84420
C         43.94248        51.93032        -0.73429
C         45.19902        53.94965         0.08448
C         43.89241        54.73041        -0.01343
C         45.21799        56.92583         0.27532
C         43.92403        56.20782         0.15456
C         45.14860        58.37752         0.55581
C         44.05302        59.16214        -0.14636
C         45.22943        61.29109         0.62990
C         44.02532        60.62261         0.24414
C         45.19629        62.69392         0.78248
C         43.98195        63.42699         0.65614
C         45.22877        65.57836         0.93084
C         44.00401        64.84801         0.85757
C         45.22939        67.01924         1.01242
C         43.97350        67.72089         1.03980
C         45.26370        69.93642         1.25591
C         43.94545        69.18139         1.27689
C         45.21532        71.39436         1.05101
C         43.98768        72.07864         1.14168
C         45.23924        74.30376         1.15300
C         43.94741        73.52178         1.08171
C         46.41636        34.21451         3.64986
C         47.66598        36.17559         2.77720
C         46.45104        35.48734         3.00834
C         47.67618        37.45845         2.20240
C         46.42652        38.03522         1.79939
C         47.69148        40.16728         1.13814
C         46.39281        39.43485         1.33966
C         47.71448        41.41767         0.35523
C         46.46329        42.03653        -0.01845
C         47.73228        44.06129        -0.84453
C         46.45184        43.31541        -0.52047
C         47.71066        45.50372        -0.32421
C         46.46762        46.24990        -0.70572
C         47.70253        48.38787        -0.87034
C         46.45007        47.70275        -0.36643
C         47.71746        49.79479        -0.95305
C         46.49506        50.50408        -0.92202
C         47.76785        52.62967        -0.36078
C         46.46385        51.90314        -0.52516
C         47.74225        54.12700        -0.33073
C         46.43857        54.82436        -0.14688
C         47.67684        56.94597         0.45966
C         46.41399        56.25167         0.27900
C         47.67821        58.29555         0.71535
C         46.44279        59.08829         0.84472
C         47.69593        61.21865         1.06690
C         46.50362        60.57682         0.80074
C         47.72277        62.67636         1.33836
C         46.42186        63.42022         1.18103
C         47.69742        65.56956         0.87800
C         46.45873        64.88214         0.98861
C         47.66446        66.99467         0.70641
C         46.44673        67.73016         0.88728
C         47.61225        69.89186         0.52761
C         46.47435        69.18009         0.88789
C         47.63922        71.33684         0.53247
C         46.44985        72.07469         0.78785
C         47.66628        74.18243         0.61369
C         46.47900        73.51117         0.79956
C         48.90608        38.15747         1.94660
C         50.16752        40.10687         1.09970
C         48.95442        39.42816         1.37491
C         50.18413        41.42131         0.59079
C         48.94552        42.06498         0.17807
C         50.17884        44.13083        -0.31247
C         48.99495        43.40127        -0.33392
C         50.18664        45.55547        -0.65436
C         48.98232        46.21442        -0.75313
C         50.24901        48.38613        -1.36589
C         48.90249        47.61511        -1.15759
C         50.19556        49.85218        -1.17400
C         48.99785        50.52648        -0.96541
C         50.20577        52.70328        -0.66950
C         49.02288        51.95259        -0.72272
C         50.19658        54.13112        -0.31975
C         49.01559        54.80237        -0.05764
C         50.17778        57.00065         0.11879
C         48.99474        56.17461         0.56918
C         50.16563        58.34713         0.39980
C         48.96026        58.99530         0.95305
C         50.33300        61.22488         1.24768
C         48.97846        60.46824         1.23886
C         50.22395        62.67331         0.78939
C         49.05876        63.45033         1.36970
C         50.13101        65.55816         0.53144
C         48.94345        64.86602         0.82389
C         50.08032        66.98070         0.36115
C         48.87092        67.68119         0.42639
C         50.11261        69.90032        -0.02087
C         48.81993        69.13531         0.14197
C         50.10665        71.35677         0.18878
C         48.88043        72.04186         0.35273
C         50.11834        74.16728         0.37380
C         48.90027        73.47959         0.42974
C         51.39630        42.14788         0.48195
C         52.61334        44.26097         0.09909
C         51.41500        43.49354         0.07918
C         52.65712        45.61345        -0.26066
C         51.44295        46.29437        -0.72102
C         52.83489        48.32267        -1.21808
C         51.48165        47.64482        -1.02340
C         52.78768        49.85448        -1.19033
C         51.45004        50.61726        -1.23365
C         52.67419        52.73442        -0.76710
C         51.45519        52.04218        -0.86923
C         52.65814        54.17349        -0.54645
C         51.45172        54.85228        -0.30942
C         52.55115        57.05563        -0.51791
C         51.41734        56.31145        -0.24988
C         52.28597        58.52991        -0.84111
C         51.31297        59.18085         0.10545
C         52.76827        61.21870         0.44872
C         51.43669        60.47964         0.49902
C         52.58687        62.67133         0.07038
C         51.37536        63.35996         0.32875
C         52.53858        65.52150        -0.05215
C         51.37411        64.83054         0.25850
C         52.63926        66.96209         0.23032
C         51.34465        67.73493         0.38100
C         52.58632        69.86767         0.15049
C         51.38272        69.18146         0.14723
C         52.58322        71.31950         0.14316
C         51.34510        72.03829         0.20984
C         52.58598        74.16037         0.33045
C         51.35370        73.47651         0.30024
C         53.83174        46.37772        -0.02482
C         55.03166        48.51605         0.01503
C         53.91533        47.74092        -0.33574
C         55.11126        49.91655        -0.20152
C         53.94854        50.61846        -0.72356
C         55.22452        52.75620        -0.74244
C         53.91177        52.01381        -0.72516
C         55.11873        54.21871        -0.40163
C         53.89894        54.88820        -0.47110
C         55.18262        57.00451        -0.71077
C         53.88329        56.38346        -0.23377
C         55.32689        58.29457        -1.19632
C         53.48032        59.38903        -1.04984
C         55.08217        61.25202        -0.67582
C         53.78705        60.57200        -0.47353
C         55.06893        62.65535        -0.59935
C         53.74709        63.34187        -0.52887
C         55.01276        65.63071        -0.93697
C         53.71299        64.85440        -0.64815
C         55.04129        67.04260        -0.38275
C         53.86252        67.72517        -0.08407
C         55.05822        69.86739         0.00432
C         53.84899        69.14859         0.07544
C         55.05389        71.31494         0.11890
C         53.80391        72.02229         0.16887
C         55.04510        74.14582         0.37062
C         53.80897        73.46042         0.28133
C         56.24989        50.65189         0.18459
C         57.48958        52.77650         0.31727
C         56.34448        52.05293        -0.00129
C         57.56479        54.20166         0.13564
C         56.34226        54.91742        -0.16194
C         57.61074        57.04212        -0.25930
C         56.37443        56.32749        -0.30689
C         57.62344        58.41813        -0.49146
C         56.44431        59.11571        -0.87872
C         57.56076        61.29054        -0.61100
C         56.33483        60.54447        -0.79138
C         57.53132        62.71841        -0.57376
C         56.28323        63.42637        -0.62655
C         57.51261        65.56891        -0.61551
C         56.28740        64.84929        -0.63971
C         57.51009        67.03088        -0.53210
C         56.27708        67.74518        -0.38083
C         57.53093        69.85944        -0.12158
C         56.29113        69.16002        -0.16758
C         57.53443        71.29574         0.24793
C         56.25416        72.02340         0.21801
C         57.50034        74.16784         0.45256
C         56.26682        73.45363         0.35038
C         58.75616        54.91127         0.30549
C         59.97805        57.06296         0.41521
C         58.83145        56.33894         0.14329
C         59.93255        58.57550         0.47346
C         58.93636        59.13054        -0.53943
C         60.00911        61.34357        -0.34402
C         58.80018        60.62766        -0.44611
C         60.00128        62.73754        -0.50458
C         58.76416        63.43473        -0.56744
C         60.00922        65.57136        -0.62353
C         58.75111        64.86775        -0.60191
C         59.97375        67.03090        -0.76555
C         58.71264        67.75174        -0.52257
C         60.00467        69.88890        -0.25610
C         58.73919        69.16420        -0.29861
C         60.01427        71.31741        -0.26485
C         58.82730        72.09432         0.16370
C         59.90929        74.41136         0.53837
C         58.76810        73.59694         0.28422
C         61.24599        59.29823         0.30730
C         62.48066        61.39385         0.00805
C         61.26381        60.62653        -0.04748
C         62.51532        62.75343        -0.25059
C         61.29723        63.43786        -0.82618
C         62.47704        65.64114        -0.39179
C         61.24358        64.92237        -0.59116
C         62.48458        67.02034        -0.28346
C         61.29018        67.78318        -0.61679
C         62.47585        69.91964        -0.19461
C         61.23969        69.22305        -0.31961
C         62.48315        71.34346        -0.29687
C         61.22724        71.94409        -0.54407
C         62.47843        74.29277         0.63181
C         61.21788        74.05009         0.11569
C         63.70864        63.50529        -0.10184
C         64.94447        65.62763        -0.09320
C         63.73092        64.90438        -0.18836
C         64.97367        67.03518        -0.00415
C         63.67318        67.74538         0.29169
C         64.90174        69.93349        -0.00869
C         63.70201        69.21822        -0.04015
C         64.89806        71.37661         0.01782
C         63.67508        72.10803        -0.06180
C         64.89959        74.15475         0.49998
C         63.66993        73.52661         0.28049
C         66.15452        67.77663        -0.01946
C         67.36023        69.91679         0.11331
C         66.16233        69.20766         0.04607
C         67.37466        71.33886         0.21604
C         66.13712        72.05921         0.19951
C         67.37833        74.14858         0.54714
C         66.14103        73.47290         0.39229
C         68.58450        72.05323         0.35605
C         68.57746        73.44285         0.51173
O         24.33709        72.31909         2.27100
O         49.32765        69.46725        -1.20427
O         36.08638        63.67137        -1.95191
O         46.91410        62.99989         2.52763
O         29.73964        63.22027         1.49066
O         39.75612        56.73333        -2.37663
O         45.05010        44.75474        -2.06194
O         41.90434        65.07261         2.11385
O         47.10178        52.04581         0.79978
O         53.36210        64.01985        -1.80714
O         41.29070        42.32819        -1.51281
O         35.81117        65.03741         1.37198
O         41.20692        67.42525        -0.87290
O         40.90181        52.29595        -2.43784
O         29.65197        60.70044         0.97562
O         49.48644        47.88673        -2.48958
O         44.64447        69.52006         2.52411
O         48.99159        59.49280         2.35352
O         58.34424        71.54677         1.45591
O         42.37081        57.75664         1.16495
O         54.33820        58.85174        -2.02489
O         46.91068        40.35833         2.38946
O         34.47055        58.69753        -2.47917
O         34.62622        61.18565        -2.54064
O         45.49902        58.69131         1.92279
O         52.14337        67.33179         1.56379
O         43.63481        55.32451         1.31582
O         47.04111        54.74869        -1.50037
O         36.56056        55.59936        -2.45769
O         45.28034        48.88356        -2.28595
O         27.35026        71.38232         1.80019
O         32.47140        58.77467         0.76001
O         61.19641        73.24101        -1.04084
O         38.94668        72.77384         2.47367
O         38.91153        68.66187        -0.97380
O         60.72139        67.48782        -1.94811
O         41.21675        61.30357        -1.82817
O         28.54387        67.65855        -1.97803
O         52.24640        50.35472        -2.45434
O         32.11846        61.70492        -2.48435
H         32.89983        61.81240        -3.07807
O         51.58884        58.50851        -2.13586
H         52.27284        58.33591        -2.81979
O         47.70952        45.45647         1.14008
H         47.48976        46.37032         1.45462
O         46.39585        47.90251         1.10859
H         45.56076        47.47234         1.42310
O         28.29101        65.13077        -2.17038
H         28.57381        65.94062        -2.66141
O         44.43038        59.10592        -1.55721
H         43.81528        59.67574        -2.06738
O         59.50364        58.84707        -1.85593
H         58.89543        59.20857        -2.53396
O         43.99630        37.19770        -0.07837
H         43.92852        36.22758         0.05213
O         41.49021        47.71196         1.22107
H         42.35264        47.31934         1.49687
O         31.72837        69.52425        -1.97193
H         32.53570        69.05737        -2.27608
O         28.86898        72.32936        -1.41429
H         29.70728        72.67203        -1.79066
O         25.16888        71.79473        -1.17366
H         25.93392        71.47445        -1.69838
O         39.28166        59.48644        -2.82432
H         40.01158        60.13777        -2.94837
O         55.63183        52.74262        -2.15972
H         55.64743        51.80600        -2.45168
O         38.81473        46.13368        -2.28505
H         37.96831        46.54805        -2.55769
O         45.24309        53.08460        -2.23781
H         46.00125        53.69901        -2.40243
O         45.16112        75.49740         0.36446
H         45.06726        75.23877        -0.57500
O         45.29814        40.62375        -1.47265
H         44.47428        40.11849        -1.64597
O         53.23781        47.96449        -2.57176
H         52.71695        48.53813        -3.17999
O         63.50588        67.67796         1.75617
H         64.28338        68.12100         2.15804
O         39.23104        43.86267         1.80714
H         39.04825        44.82089         1.92322
O         35.25684        75.58066         1.11444
H         35.22560        75.48446         2.09084
O         47.81360        44.10199        -2.29057
H         46.93353        44.39915        -2.62596
O         34.29381        73.50127         2.63038
H         33.55657        73.02968         3.07241
O         50.76553        61.29497         2.64108
H         50.32890        60.54311         3.10965
O         44.12848        46.24827         1.21425
H         44.19900        45.31669         1.51807
O         38.78506        63.14587         1.74261
H         39.48759        63.62540         2.23350
O         55.05052        65.84372        -2.38276
H         54.59376        65.06883        -2.78942
O         45.25649        53.44446         1.42825
H         44.82118        54.11271         2.00976
O         61.44938        63.28977        -2.28889
H         60.78710        63.87488        -2.71522
O         37.80779        57.04657         0.66544
H         37.11356        57.64733         1.01043
O         37.86640        66.96790         2.08612
H         37.14746        66.35238         2.36621
O         49.38685        63.64914         2.77729
H         48.53084        63.64792         3.26856
O         53.32152        61.18689         1.79490
H         52.56988        61.37812         2.41421
O         49.17325        55.93554         2.00547
H         49.16468        56.80554         2.46059
O         34.08097        52.21520         1.40981
H         34.09183        53.17546         1.61342
O         59.43021        58.91381         1.80602
H         60.07006        58.57478         2.46608
O         53.98081        56.55636         1.24107
H         54.76626        56.05148         1.54490
O         28.59439        65.52628         1.42977
H         29.06588        64.97550         2.09722
H         22.72255        75.07874         1.27180
H         25.28904        75.22073         0.96273
H         27.80959        75.26000         1.05238
H         30.27022        75.23979         1.14000
H         32.67048        75.25233         1.25933
H         35.08234        74.35133        -0.53346
H         37.69587        75.32292         0.76499
H         40.31033        75.31897         0.85114
H         42.76685        75.29853         1.01030
H         45.36069        74.64726         2.22029
H         47.67806        75.28151         0.65505
H         50.12124        75.26588         0.42998
H         52.59437        75.25693         0.41634
H         55.04499        75.24161         0.46749
H         57.44070        75.25506         0.61548
H         59.75141        75.35382         1.08601
H         62.60120        75.06554         1.40614
H         64.91102        75.22192         0.76815
H         67.38163        75.23793         0.69561
H         21.99209        69.18415         0.35106
H         20.68648        71.28960         0.92337
H         20.66910        73.72475         1.32669
H         24.49624        65.04744        -0.22380
H         23.26201        67.13208         0.01511
H         26.82996        60.95400        -0.85339
H         25.69704        62.91387        -0.48570
H         29.40645        56.49945        -0.79339
H         28.19476        58.59560        -1.19665
H         31.84084        52.27210        -0.40094
H         30.62937        54.37665        -0.69624
H         34.30716        47.93051        -0.42004
H         33.10319        50.06502        -0.29508
H         36.74641        43.73252         0.33326
H         35.50733        45.82096        -0.13039
H         39.30432        39.44226         1.18323
H         38.04295        41.53396         0.73231
H         41.79501        35.63932         2.92655
H         40.55420        37.56730         2.00559
H         45.19611        32.60184         4.39223
H         43.04052        33.67041         3.75900
H         47.36006        33.74533         3.96286
H         48.61514        35.70820         3.07890
H         49.85088        37.64847         2.19110
H         51.12136        39.61653         1.34674
H         52.33752        41.66116         0.77921
H         53.53784        43.77887         0.45266
H         54.67450        45.89597         0.49521
H         55.87306        48.02243         0.52590
H         57.09631        50.11670         0.64181
H         58.37175        52.24801         0.71135
H         59.67109        54.36595         0.58344
H         60.87205        56.54321         0.79674
H         62.18359        58.79890         0.60065
H         63.39910        60.88750         0.34518
H         64.64056        62.97215         0.14401
H         65.89522        65.07199        -0.11130
H         67.11942        67.25312        -0.10764
H         68.31531        69.37030         0.12857
H         69.53739        71.50476         0.35232
H         69.52955        73.98034         0.62414
