         349
 CSIRO Nanostructure Databank - Neutral Graphene Oxide Data Set
C          1.45793         1.90890        -1.37095
C          1.45066         3.34101        -1.50840
C          2.52725         1.06262        -1.18263
C          2.54319         4.19245        -1.47679
C          1.30528         6.46609        -1.73582
C          1.28136         7.80139        -1.58740
C          2.43229         5.65740        -1.19899
C          2.40015         8.50728        -0.82536
C          1.33340        10.79073        -1.43109
C          1.38966        12.13257        -1.64288
C          2.49271        10.02455        -1.03764
C          2.66214        12.86526        -1.61212
C          1.43510        15.15721        -1.86565
C          1.36975        16.48370        -1.65355
C          2.67438        14.37399        -1.60446
C          2.42862        17.22443        -0.92033
C          2.58863        18.67842        -1.12145
C          3.88872         1.48584        -1.39418
C          3.87528         3.67409        -1.60511
C          5.06069         1.12698        -0.78924
C          5.03221         4.22007        -1.05267
C          3.71707         6.37845        -0.91270
C          3.74492         7.85178        -1.31765
C          5.01444         5.64909        -0.80536
C          5.00024         8.56909        -0.82289
C          3.64026        10.68449        -0.66002
C          3.83827        12.11641        -0.96211
C          4.81826         9.91345        -0.18187
C          4.92864        12.87463        -0.28645
C          3.81229        15.04164        -0.89593
C          3.63956        16.46824        -0.44003
C          4.90246        14.24076        -0.26697
C          4.86231        17.22675        -0.12896
C          3.74677        19.31280        -0.82379
C          4.91784        18.61123        -0.30720
C          6.27906         1.94270        -0.87569
C          6.24945         3.42720        -0.86212
C          7.48264         1.27947        -0.79455
C          7.40497         4.11135        -0.52127
C          6.16822         6.33059        -0.50712
C          6.22662         7.80864        -0.45655
C          7.37360         5.55146        -0.18954
C          7.40477         8.50183         0.15147
C          6.01256        10.60908         0.40089
C          5.87466        12.12030         0.67915
C          7.34933         9.94269         0.35973
C          7.23837        12.83506         0.86234
C          6.14898        15.05501        -0.00416
C          5.96725        16.47989         0.56297
C          7.24373        14.33653         0.75559
C          7.29236        17.22250         0.54694
C          6.13469        19.30909        -0.09132
C          7.33790        18.63655         0.28478
C          8.76252         1.96136        -0.55088
C          8.70816         3.44242        -0.32719
C         10.05423         1.37778        -1.09226
C          9.94824         4.25111        -0.69024
C          8.65327         6.31690         0.09034
C          8.59250         7.79607         0.21115
C          9.93743         5.65322        -0.14032
C          9.86676         8.47362         0.50134
C          8.51557        10.68189         0.55659
C          8.53475        12.11568         0.71647
C          9.81381         9.97180         0.63740
C          9.74940        12.83398         0.75381
C          8.51009        15.08034         0.74622
C          8.48862        16.48728         0.71816
C          9.75084        14.31319         0.67888
C          9.71943        17.22305         1.06980
C          8.56965        19.33117         0.24279
C          9.78441        18.77283         0.80755
C         11.29043         2.11765        -0.62367
C         11.23278         3.50601        -0.41575
C         12.51323         1.42795        -0.52518
C         12.42101         4.25016        -0.14394
C         11.14441         6.38240        -0.06820
C         11.12029         7.78790         0.12757
C         12.39527         5.64636        -0.08500
C         12.39560         8.55395        -0.11970
C         11.05689        10.76047         0.40632
C         11.03415        12.19055         0.76752
C         12.36333        10.04567         0.22719
C         12.27306        12.84366         0.89463
C         11.04718        15.06306         0.69108
C         11.01181        16.47995         1.19061
C         12.38952        14.33660         0.69015
C         12.30330        17.25263         1.29848
C         11.11678        19.36616         0.66609
C         12.30315        18.70086         0.97895
C         13.72700         2.09400        -0.23633
C         13.70191         3.54270        -0.03703
C         14.92552         1.38969        -0.01911
C         14.84946         4.21212         0.30465
C         13.71866         6.37663         0.01766
C         13.54152         7.79742         0.51999
C         14.74158         5.61539         0.86287
C         14.78232         8.53564         0.92998
C         13.57763        10.72575         0.75288
C         13.49560        12.11460         1.00730
C         14.78821        10.00541         0.93242
C         14.70415        12.79484         1.54633
C         13.47800        15.05157         1.46644
C         13.57516        16.50413         1.21680
C         14.74622        14.28899         1.67811
C         14.78678        17.14850         1.22608
C         13.58158        19.31028         0.87435
C         14.79830        18.59850         1.03750
C         16.13961         2.05407         0.29374
C         16.19837         3.56572         0.17982
C         17.30739         1.37790         0.60359
C         17.20428         4.17953         1.16275
C         16.05860         6.37771         0.90927
C         16.05660         7.79449         0.93813
C         17.26590         5.68111         1.01037
C         17.27331         8.51925         0.98477
C         16.03849        10.65427         1.13315
C         16.01860        12.07303         1.54917
C         17.24922         9.95523         1.06842
C         17.27240        12.85233         1.57217
C         16.02998        15.00287         1.53731
C         16.03598        16.40042         1.36233
C         17.26469        14.24971         1.53912
C         17.27630        17.10601         1.29514
C         16.03671        19.24709         0.97917
C         17.26816        18.53820         1.10416
C         18.53848         2.07742         0.88993
C         18.54083         3.49273         1.05696
C         19.75585         1.38409         0.93006
C         19.74467         4.20050         1.22874
C         18.50533         6.38014         1.10141
C         18.50932         7.80488         1.06835
C         19.73781         5.65872         1.25427
C         19.74867         8.52313         1.23088
C         18.53381        10.74463         0.96536
C         18.52610        12.04621         1.79501
C         19.76933         9.94213         1.27653
C         19.79863        12.83716         1.57864
C         18.52003        14.97082         1.52354
C         18.51646        16.40381         1.41691
C         19.74407        14.24893         1.58926
C         19.74416        17.12816         1.35556
C         18.48067        19.23320         1.03363
C         19.73335        18.56451         1.16178
C         20.97737         2.06228         1.14930
C         20.96791         3.47498         1.35445
C         22.20428         1.34362         0.98261
C         22.21761         4.15971         1.70755
C         20.94821         6.37546         1.37863
C         20.94913         7.78584         1.41125
C         22.19772         5.68897         1.89202
C         22.25827         8.51326         1.64893
C         21.00239        10.66307         1.34549
C         21.01837        12.13073         1.39523
C         22.20796         9.97172         1.30417
C         22.26723        12.79912         1.30315
C         20.99894        15.00523         1.69609
C         20.99876        16.45286         1.42938
C         22.32396        14.24380         1.56575
C         22.21371        17.12326         1.25378
C         20.92535        19.27349         1.11125
C         22.25898        18.63054         1.33915
C         23.43213         1.99037         0.91243
C         23.53516         3.39291         1.36980
C         24.61930         1.32844         0.50191
C         24.74523         4.13960         0.99967
C         23.50251         6.36623         1.41927
C         23.37236         7.78140         0.85229
C         24.75450         5.61315         1.08242
C         24.68862         8.54111         0.88730
C         23.41954        10.65256         0.72038
C         23.48983        12.13038         1.01265
C         24.70687         9.89228         0.89946
C         24.69779        12.83160         0.84572
C         23.49994        14.98994         1.10020
C         23.43699        16.40322         1.00292
C         24.68544        14.28599         0.78432
C         24.57006        17.09738         0.48807
C         23.31007        19.21301         0.44191
C         24.41323        18.49320         0.08660
C         25.82079         2.02307         0.33659
C         25.84650         3.47020         0.48320
C         27.01932         1.33901        -0.01990
C         27.06079         4.18698         0.12720
C         25.77833         6.36475         0.24544
C         25.99725         7.76909         0.83652
C         27.07636         5.61104         0.07369
C         27.04897         8.53715         0.06317
C         26.02679        10.63305         0.97284
C         25.94623        12.11770         0.60385
C         27.10197         9.88047         0.20078
C         27.07938        12.80806         0.23993
C         25.85444        15.02149         0.42499
C         25.78312        16.41149         0.23990
C         27.18711        14.30446         0.48023
C         26.99365        17.27875        -0.11968
C         25.37869        19.01436        -0.85638
C         26.56740        18.37811        -1.07936
C         28.20140         2.02376        -0.27469
C         28.22091         3.46956        -0.23708
C         29.40937         1.32267        -0.62624
C         29.40230         4.17076        -0.62259
C         28.20692         6.30507        -0.35140
C         28.09195         7.76897        -0.71974
C         29.40233         5.59719        -0.68968
C         29.42327         8.47659        -0.81958
C         28.35325        10.60762        -0.08776
C         28.36771        12.10620        -0.01043
C         29.46800         9.87964        -0.72622
C         29.44136        12.80009        -0.76334
C         28.30153        15.00206        -0.32641
C         28.22099        16.47946        -0.60489
C         29.32468        14.17706        -1.03866
C         29.20918        17.15427        -1.58860
C         27.40820        18.80824        -2.15741
C         28.58427        18.19485        -2.48988
C         30.54488         1.99958        -0.96461
C         30.56917         3.43878        -1.00134
C         31.70756         4.14011        -1.42971
C         30.57639         6.28655        -1.13334
C         30.59022         7.75126        -1.15391
C         31.70543         5.53436        -1.49524
C         31.76972         8.47831        -1.43323
C         30.62428        10.60134        -1.10369
C         30.55204        12.05693        -1.24592
C         31.77495         9.86508        -1.45716
C         31.54634        12.73924        -1.97767
C         30.27084        14.81135        -1.88314
C         30.05380        16.16612        -2.37800
C         31.39360        14.07237        -2.31478
C         30.65895        16.59219        -3.53298
C         29.32257        18.61548        -3.65185
C         30.35610        17.86172        -4.12922
O          2.52575        16.74477         0.47927
O         11.69981        10.69690        -0.93162
O         10.43032        14.86580        -0.61034
O         11.59389        16.73684         2.49523
O          7.10851        13.69210         2.05079
O          2.26652         8.29903         0.54243
O         22.05584         5.94338         3.28393
O          3.74259        12.32907        -2.42151
O          7.85256         5.72170         1.20430
O          9.52664        18.15457         2.12824
O         21.80218        14.64664         2.87297
O          3.81225        14.93855        -2.36736
O         15.20530        12.18865         2.78941
O          6.05591         8.47806        -1.82650
O          4.00788         2.50976        -2.36099
O          5.06746         9.84939         1.25479
O         23.01249         3.52073         2.72796
O          8.86033         2.53157         0.80255
O         13.85593        14.67679         2.80780
O         28.99377        15.98878         0.54859
O         24.54287         6.20241         2.40348
O         28.83643        11.31436         1.14258
O          2.81687         6.03820         0.17852
O         13.75810         8.00930         1.91024
O          9.92699         9.13418         1.84220
O          6.72283        15.21518        -1.33855
H          5.99682        15.21092        -2.00170
O         27.55736         7.75629        -2.10949
H         28.18406         7.23461        -2.65644
O         26.44164        10.60026         2.37092
H         27.34424        11.00434         2.40050
O         27.38657        17.96871         1.09132
H         27.99567        17.37316         1.58165
O          9.88256         4.40381        -2.15882
H          9.91956         3.49164        -2.54318
O         23.14677        10.55280        -0.74917
H         22.35583        11.10440        -0.93744
O          9.97950         1.52402        -2.53173
H         10.79569         1.14713        -2.92145
O          3.74203         7.90575        -2.75177
H          4.66697         8.08754        -3.04293
O         26.57327         7.64749         2.15499
H         26.51862         8.53561         2.58198
O         18.65415        11.16894        -0.43332
H         18.60342        10.36761        -0.99642
O         25.22531         6.50459        -1.08637
H         25.89859         6.96567        -1.64648
O         22.64383        18.95706         2.73268
H         22.05805        18.43969         3.32584
O          5.55857        16.31604         1.94820
H          5.35979        17.19976         2.32169
O         22.57348         8.49582         3.05766
H         22.45374         7.54201         3.38750
O         14.25216         5.45530         2.20952
H         14.91570         4.90564         2.68981
O         16.69396         3.88600        -1.15397
H         15.95539         3.77675        -1.78882
O         12.65968         8.48215        -1.56074
H         12.14601         9.22033        -1.97046
O         12.90775        14.45744        -0.67471
H         12.14357        14.29505        -1.27835
O         16.67424         3.91487         2.50229
H         17.36190         4.16675         3.15538
O          5.17577        12.25482         1.93040
H          4.77239        11.37930         2.14729
O         27.57698        14.35804         1.88691
H         28.21818        15.10018         1.98450
O         18.50066        11.59932         3.17820
H         18.39531        12.38100         3.76012
O         14.29596         6.42250        -1.31360
H         13.72943         7.02319        -1.85617
O         30.14792        17.89830        -0.76220
H         30.38800        17.30912        -0.01188
O         22.90673         7.68269        -0.51199
H         23.03948         8.56494        -0.93385
H          0.45872         1.46629        -1.23295
H          0.45464         3.80599        -1.43803
H          2.33425         0.03638        -0.83533
H          0.49488         5.93862        -2.26163
H          0.42268         8.36729        -1.97821
H          0.35896        10.28681        -1.48637
H          0.45807        12.69211        -1.80989
H          0.59716        14.64761        -2.36390
H          0.47422        17.04581        -1.96036
H          1.75461        19.23388        -1.57646
H          5.09656         0.23949        -0.14019
H          3.83940        20.39460        -1.00138
H          7.49335         0.18141        -0.87512
H          6.16886        20.39191        -0.27914
H         10.13548         0.28339        -0.84243
H          8.60756        20.32314        -0.23197
H         12.52496         0.33581        -0.66674
H         11.17769        20.38852         0.26343
H         14.90844         0.28865        -0.03000
H         13.63382        20.39207         0.67956
H         17.32505         0.27699         0.58270
H         16.07172        20.33682         0.83181
H         19.77001         0.29941         0.74635
H         18.47271        20.32369         0.88905
H         22.14805         0.26964         0.74990
H         20.89512        20.36823         1.00101
H         24.58453         0.24777         0.29803
H         23.19378        20.25070         0.09477
H         27.00015         0.24126        -0.09427
H         25.10745        19.89983        -1.45161
H         29.39614         0.22289        -0.62516
H         27.03745        19.63196        -2.78828
H         31.45879         1.45262        -1.23892
H         32.60801         3.58276        -1.72501
H         32.61609         6.03965        -1.84370
H         32.70320         7.94850        -1.66384
H         32.70781        10.38232        -1.71803
H         32.43472        12.20322        -2.33587
H         32.17313        14.56115        -2.91353
H         31.34375        15.92764        -4.07921
H         28.99803        19.52454        -4.17924
H         30.90194        18.16738        -5.03220
