         311
 CSIRO Nanostructure Databank - Neutral Graphene Oxide Data Set
C         30.47077        57.25278         0.93607
C         30.48863        58.67742         1.00690
C         29.32331        59.43024         1.31933
C         30.57456        61.50992         1.13853
C         29.38159        60.82137         1.37548
C         32.82433        52.88807         0.29743
C         32.81017        54.28454         0.57943
C         31.64907        55.04910         0.72883
C         32.88017        57.18809         0.59162
C         31.66215        56.49077         0.78275
C         32.87299        58.63224         0.32101
C         31.69049        59.39173         0.73168
C         33.01395        61.49937         0.63898
C         31.76145        60.80644         0.80941
C         35.18476        48.58235        -0.41045
C         35.21788        49.98835        -0.01045
C         34.04556        50.75263        -0.07049
C         35.29896        52.84291         0.22853
C         34.02446        52.15816         0.17606
C         35.35697        54.23810         0.41312
C         34.11408        54.95087         0.76372
C         35.43191        57.14467         0.42835
C         34.13741        56.47995         0.75786
C         35.46659        58.61472         0.16354
C         34.17798        59.38714         0.12308
C         35.47551        61.51706         0.30421
C         34.22214        60.84485         0.39873
C         37.97831        44.47438        -0.43478
C         37.76801        45.78481         0.05507
C         36.58373        46.42904        -0.37077
C         37.82585        48.67850         0.87490
C         36.07123        47.66295         0.13515
C         37.74333        50.01821         0.41452
C         36.48297        50.67473         0.23038
C         37.76222        52.79686         0.07435
C         36.51384        52.09796         0.16305
C         37.79505        54.22037         0.13237
C         36.59565        54.91936         0.38523
C         37.99415        57.08999         0.49908
C         36.67719        56.35544         0.70474
C         38.00695        58.60967         0.51199
C         36.72705        59.37500         0.43812
C         37.94684        61.48462         0.03401
C         36.71475        60.84421         0.20085
C         40.32677        40.09960        -0.52758
C         40.21238        41.42602        -0.11753
C         39.12186        42.29332        -0.45238
C         40.04840        44.13392         0.97973
C         39.02761        43.63185        -0.02608
C         40.15002        45.67459         1.23664
C         38.75606        46.39484         1.07883
C         40.18983        48.53246         0.48422
C         38.95625        47.88818         0.79426
C         40.20295        49.93433         0.21160
C         38.98061        50.67715         0.16842
C         40.19859        52.77190        -0.35626
C         38.98368        52.08027        -0.06037
C         40.17073        54.16664        -0.54891
C         39.01517        54.93431        -0.17871
C         40.11361        57.08780        -0.88118
C         39.05456        56.34294        -0.18011
C         40.08834        58.61445        -0.92624
C         39.33672        59.29801         0.23154
C         40.29058        61.42861        -0.62674
C         39.19220        60.78141        -0.11480
C         42.84992        35.86885        -1.33925
C         42.85379        37.30942        -0.85087
C         41.65251        38.00981        -0.87117
C         42.74462        39.97499         0.04790
C         41.55677        39.35545        -0.41387
C         42.68664        41.33260         0.59113
C         41.36135        42.03374         0.59412
C         42.66174        44.25057         0.56127
C         41.37324        43.52533         0.54567
C         42.64218        45.71225         0.73151
C         41.39994        46.37963         0.71562
C         42.64790        48.49475         0.39219
C         41.41685        47.79725         0.53921
C         42.64158        49.88207         0.06550
C         41.44353        50.60834        -0.03736
C         42.65208        52.72445        -0.45164
C         41.45248        52.03564        -0.34310
C         42.69375        54.12031        -0.91203
C         41.36948        54.84993        -1.03865
C         42.68606        57.05060        -1.19279
C         41.39864        56.33704        -1.19215
C         42.63088        58.49167        -1.18674
C         41.46743        59.22399        -1.06288
C         42.79305        61.36955        -1.00816
C         41.46046        60.72466        -1.28078
C         45.73785        33.75419        -2.78844
C         44.47911        34.14941        -2.26260
C         45.28348        35.89029        -0.74543
C         44.23802        35.27360        -1.46026
C         45.31310        37.26461        -0.37702
C         44.04742        37.95430        -0.40424
C         45.20507        39.98287         0.42062
C         43.99467        39.30982         0.01553
C         45.17112        41.38913         0.70299
C         43.94400        42.10727         0.66795
C         45.13828        44.23397         0.84901
C         43.93042        43.50771         0.69977
C         45.13716        45.69278         0.84731
C         43.88533        46.40216         0.71557
C         45.14095        48.52361         0.60432
C         43.89531        47.81066         0.56710
C         45.17246        49.91277         0.34343
C         43.93801        50.53989        -0.15732
C         45.14431        52.80012         0.00710
C         43.93978        52.01991        -0.38362
C         45.11882        54.27595        -0.28912
C         43.91236        54.93014        -0.81755
C         45.20589        57.02145        -1.04300
C         43.92073        56.32230        -1.04684
C         45.18660        58.44610        -1.42268
C         43.90213        59.21824        -1.44976
C         45.24997        61.31009        -1.04210
C         43.96186        60.68150        -1.18042
C         46.96441        34.37847        -2.59786
C         48.02514        36.40601        -1.46667
C         47.18771        35.30948        -1.53829
C         47.84887        37.45065        -0.46876
C         46.52523        37.92972        -0.05613
C         47.63577        39.98435         0.81610
C         46.45495        39.29791         0.41543
C         47.62098        41.37649         1.08855
C         46.37371        42.10348         0.97270
C         47.52760        44.25832         1.48745
C         46.33665        43.51377         1.03861
C         47.65802        45.68828         1.00644
C         46.33562        46.40979         0.96151
C         47.58351        48.57146         1.00988
C         46.36154        47.83130         0.85963
C         47.55189        49.97595         0.90189
C         46.36821        50.65201         0.48403
C         47.58949        52.82320         0.42593
C         46.41772        52.08168         0.25313
C         47.67424        54.20460        -0.11480
C         46.42746        54.92999        -0.55104
C         47.72384        57.02572        -0.83194
C         46.42707        56.38904        -0.78703
C         47.78437        58.42660        -1.34831
C         46.49100        59.18591        -1.46256
C         47.69093        61.31262        -0.90414
C         46.46656        60.64745        -1.18229
C         48.98003        38.12762        -0.05129
C         50.14474        40.06919         0.91994
C         48.91837        39.20494         0.99007
C         50.10473        41.43281         1.16014
C         48.82675        42.06782         1.37627
C         50.08171        44.24931         1.90049
C         48.79240        43.48293         1.74870
C         50.03463        45.74938         1.99003
C         48.80384        46.49856         1.59088
C         50.07855        48.65269         1.51414
C         48.81540        47.85610         1.36420
C         49.89464        50.10912         1.87967
C         48.67339        50.81280         1.39758
C         49.90190        53.03518         1.25843
C         48.75734        52.25253         1.02581
C         49.95022        54.41421         0.81179
C         48.87462        55.01890         0.14792
C         50.15558        57.11113        -0.29870
C         48.88026        56.38983        -0.33394
C         50.22377        58.50983        -0.63609
C         49.08989        59.22438        -1.31764
C         50.10910        61.37113        -0.54288
C         48.93625        60.66562        -0.84743
C         51.30501        42.24249         1.12067
C         52.46345        44.40884         1.09173
C         51.33248        43.60026         1.41310
C         52.47427        45.81052         1.21611
C         51.34326        46.47366         1.91175
C         52.21110        48.73658         1.13331
C         51.31119        47.94498         2.04387
C         52.42288        50.15827         1.60433
C         51.16685        50.89560         1.96307
C         52.46369        53.09000         1.78437
C         51.11527        52.39917         1.86942
C         52.49088        54.55196         1.41295
C         51.18878        55.21585         0.98270
C         52.60261        57.07800         0.05242
C         51.28373        56.47867         0.22677
C         52.65401        58.57007        -0.32096
C         51.37875        59.25663        -0.45865
C         52.57874        61.40668        -0.33023
C         51.37195        60.71012        -0.45672
C         53.47443        46.61635         0.63639
C         54.57715        48.78383         0.34226
C         53.43629        48.04059         0.63120
C         54.73944        50.18470         0.64371
C         53.63345        50.91962         1.24113
C         54.99163        52.95970         1.43658
C         53.68286        52.27949         1.47320
C         55.04638        54.45714         1.38878
C         53.79286        55.18854         1.09513
C         55.07658        57.20358         0.42225
C         53.83181        56.47742         0.60868
C         55.08501        58.61573         0.14182
C         53.87756        59.32324        -0.06486
C         55.07070        61.43802        -0.22850
C         53.84603        60.74419        -0.18825
C         55.93233        50.83238         0.35942
C         57.37850        52.92872         0.38842
C         56.20743        52.17433         0.86080
C         57.49895        54.30017         0.52018
C         56.34575        55.11895         0.97900
C         57.52113        57.17935         0.23862
C         56.29937        56.51913         0.51194
C         57.53256        58.58968         0.12553
C         56.32580        59.32286         0.09912
C         57.51650        61.43129        -0.42774
C         56.31953        60.75551        -0.15190
C         58.67996        55.00098         0.13233
C         59.95173        57.08445        -0.22069
C         58.74758        56.40777         0.09303
C         60.02964        58.49386        -0.26825
C         58.82963        59.27452         0.08154
C         60.03271        61.33133        -0.86734
C         58.82029        60.80790        -0.24388
C         61.19476        59.18186        -0.64248
C         61.17323        60.56488        -0.95098
O         33.36745        59.03740        -1.03033
O         44.48525        58.73992        -2.69784
O         47.17557        58.67742        -2.66319
O         52.84298        57.51482        -1.32811
O         34.21727        55.71731         2.00993
O         47.86783        43.87048         2.83556
O         51.70141        55.35758         2.35221
O         44.14412        51.11191        -1.51600
O         59.02259        60.26666         1.11298
O         40.52533        45.84011         2.60200
O         46.37533        35.09895        -0.39247
O         50.95380        48.80522         0.21679
O         41.91652        43.95750        -0.73730
O         55.94019        55.02660         2.39059
O         51.75923        52.94973         3.05578
O         41.98955        54.23611        -2.20936
O         52.03733        50.37607         3.00292
O         55.96293        52.35051         2.30662
O         50.06955        44.91509         3.19988
O         35.53737        57.66232        -0.94616
O         40.41354        56.65193        -2.25671
O         44.89342        53.77688         1.09021
O         48.90487        50.50029         2.84849
O         36.64282        48.10671         1.34160
O         41.83060        41.41960         1.81350
O         51.64440        47.19774         3.19900
O         37.56321        56.60546         1.82223
O         47.24927        54.22161        -1.53784
O         37.36342        59.09045         1.73714
O         42.13070        35.76392        -2.57284
H         42.58108        36.31731        -3.24284
O         48.88802        38.56057         2.32015
H         48.81009        39.27270         2.98999
O         39.32751        58.96355        -2.12068
H         39.57265        58.29336        -2.80368
O         41.19444        60.92004        -2.71420
H         40.37398        60.40290        -2.90447
O         40.15072        59.16008         1.41146
H         39.57251        59.33928         2.18541
O         48.06879        45.50799        -0.40203
H         48.02899        46.38411        -0.84309
O         38.11427        46.25365         2.35331
H         38.87376        46.18916         2.99727
O         49.56567        59.34944        -2.69124
H         48.76304        59.33248        -3.26710
O         39.69482        43.53970         2.23646
H         39.97690        44.22166         2.91130
H         29.51473        56.72762         1.07876
H         28.37802        58.90637         1.51873
H         30.59919        62.60653         1.20918
H         28.47316        61.38942         1.62070
H         31.86504        52.35839         0.19749
H         30.67067        54.54624         0.70589
H         33.01969        62.59058         0.78118
H         34.48353        48.29010        -1.20750
H         33.08900        50.24115        -0.25520
H         35.47492        62.61782         0.31162
H         37.22524        44.06090        -1.12763
H         36.01509        45.94135        -1.18102
H         37.95660        62.57328        -0.13341
H         39.47648        39.61083        -1.02787
H         38.32426        41.89264        -1.09974
H         40.20352        62.50378        -0.85696
H         42.27408        35.25003        -0.59434
H         40.75236        37.50813        -1.25602
H         42.81811        62.44656        -0.78126
H         45.69638        32.98340        -3.57394
H         43.59657        33.66482        -2.70859
H         45.26621        62.38341        -0.79663
H         47.77371        34.18602        -3.31793
H         48.85445        36.51205        -2.18259
H         47.64801        62.38630        -0.66107
H         49.96103        37.83653        -0.45699
H         51.11703        39.57528         0.77153
H         50.05918        62.45674        -0.36639
H         52.23103        41.75588         0.77755
H         53.31882        43.91881         0.60082
H         52.56709        62.50629        -0.36456
H         54.35707        46.12381         0.19934
H         55.47269        48.24337        -0.00194
H         55.06974        62.52774        -0.37824
H         56.70084        50.32573        -0.24326
H         58.20463        52.35885        -0.06435
H         57.47366        62.45516        -0.82956
H         59.57689        54.41656        -0.12268
H         60.85907        56.49401        -0.41814
H         60.01053        62.34215        -1.29982
H         62.11535        58.61049        -0.82855
H         62.08553        61.01406        -1.36946
