         276
 CSIRO Nanostructure Databank - Neutral Graphene Oxide Data Set
C        -11.23224         0.65948        -0.52000
C        -10.02812         1.43447        -1.02995
C         -8.81777         0.65346        -0.54518
C         -7.57361         1.36660        -0.16978
C         -6.27477         0.66334        -0.37815
C         -5.13805         1.26260         0.40724
C         -3.85809         0.49817         0.50193
C         -2.58378         1.19599         0.95417
C         -1.25563         0.49999         0.69709
C         -0.00857         1.32015         0.50313
C          1.17961         0.77036        -0.26650
C          2.46905         1.58014        -0.25492
C          3.79547         0.87182        -0.16853
C          4.98018         1.53247         0.03461
C          6.34261         0.81653        -0.02095
C          7.30847         1.57305        -0.94252
C          8.63607         0.84922        -1.12730
C          9.88913         1.67517        -0.77631
C         10.93615         0.92500        -0.03426
C         -9.93864         2.90329        -0.65688
C         -8.76778         3.55825        -0.42909
C         -7.50564         2.84240        -0.26394
C         -6.28719         3.46650        -0.14324
C         -5.14281         2.76579         0.51623
C         -3.86438         3.49249         0.84698
C         -2.60963         2.69008         1.16436
C         -1.30904         3.46177         1.32357
C          0.00276         2.76690         0.97648
C          1.26331         3.56093         0.89380
C          2.44610         3.09914         0.02216
C          3.72594         3.63894         0.62150
C          5.09194         2.98767         0.47842
C          6.07685         3.88451        -0.44281
C          7.24054         3.06561        -1.05263
C          8.60979         3.78278        -1.44344
C          9.68711         3.10635        -0.61865
C         -8.67293         5.04743        -0.13668
C         -7.43307         5.62703        -0.87036
C         -6.13631         4.89708        -0.49120
C         -4.85521         5.64006        -0.13415
C         -3.58384         4.92059         0.34122
C         -2.74846         5.67073         1.43749
C         -1.35833         4.95895         1.49805
C         -0.06329         5.74338         1.41611
C          1.20291         5.03917         1.09389
C          2.39941         5.69731         1.11799
C          3.61083         4.88737         1.13306
C          5.48217         6.05230         0.71248
C          6.64798         5.19151         0.28690
C          7.54788         5.94521        -0.66871
C          8.53900         5.28112        -1.30791
C         -7.29007         7.11933        -0.78962
C         -6.11994         7.76958        -0.43374
C         -4.96941         7.08197         0.04957
C         -3.90870         7.94159         0.69896
C         -2.65803         7.20372         1.22975
C         -1.35973         7.97432         1.25901
C         -0.03749         7.24515         1.42651
C          1.29994         8.01726         1.24448
C          2.47238         7.15000         0.74155
C          3.71151         7.81492         0.16826
C          5.10290         7.23163         0.13475
C          6.19068         7.99801        -0.49221
C          7.37186         7.37749        -0.81282
C         -6.01057         9.22672        -0.61030
C         -4.80596         9.82404        -0.63724
C         -3.55230         9.01325        -0.37119
C         -2.36138         9.85589         0.00523
C         -1.31524         9.35936         0.68980
C         -0.04442        10.17367         0.88200
C          1.13976         9.31984         0.36481
C          2.47041         9.99444         0.44925
C          3.60792         9.34092        -0.25830
C          4.92123        10.07393        -0.16902
C          6.08058         9.45035        -0.46187
C        -11.23573        -0.68280        -0.58134
C        -10.09324        -1.48146        -1.18637
C         -8.76175        -0.77970        -0.94094
C         -7.59431        -1.45785        -1.06949
C         -6.27983        -0.75746        -0.84309
C         -5.00130        -1.57423        -0.70467
C         -3.76475        -0.71546        -0.36834
C         -2.48400        -1.44900        -0.45376
C         -1.31025        -0.99037         0.37808
C         -0.01819        -1.57116        -0.16150
C          1.17211        -0.74429        -0.63219
C          2.46919        -1.41737        -0.22333
C          3.72990        -0.63159        -0.01848
C          5.07248        -1.34369         0.19427
C          6.15501        -0.60095        -0.59133
C          7.47554        -1.40896        -0.66204
C          8.71355        -0.64679        -0.96417
C         10.10419        -1.28891        -0.84426
C         11.00161        -0.41881         0.01349
C        -10.03030        -2.92063        -0.71084
C         -8.85964        -3.65400        -0.77261
C         -7.70321        -2.93098        -1.43560
C         -6.24958        -3.58232         0.53075
C         -5.00532        -2.79839         0.23749
C         -3.71237        -3.54212         0.07929
C         -2.56623        -2.90952        -0.60001
C         -1.28217        -3.69387        -0.72457
C         -0.02281        -2.90242        -0.41698
C          1.21795        -3.74685        -0.53013
C          2.52345        -2.90817        -0.45705
C          3.83259        -3.59082        -0.20663
C          5.16651        -2.83201        -0.26076
C          6.38792        -3.50319         0.36376
C          7.63433        -2.76549        -0.00023
C          8.88990        -3.52165        -0.29110
C         10.05159        -2.77160        -0.50979
C         -8.75703        -5.01334        -0.31448
C         -7.56773        -5.70432         0.10816
C         -6.33067        -4.94264         0.32007
C         -5.05303        -5.70370         0.35731
C         -3.81749        -5.02203        -0.10233
C         -2.54644        -5.77830        -0.21655
C         -1.36621        -4.92097         0.21219
C         -0.09491        -5.71653         0.49842
C          1.19901        -4.93340         0.45301
C          2.49128        -5.66232         0.62241
C          3.81883        -4.96159         0.39386
C          5.10382        -5.71444         0.49149
C          6.43155        -5.00230         0.42608
C          7.68396        -5.74550         0.05045
C          8.85593        -4.93805        -0.34839
C         -7.52341        -7.09890         0.20007
C         -6.36869        -7.87344         0.83310
C         -5.02274        -7.16923         0.61197
C         -3.81682        -7.97749         0.17939
C         -2.53914        -7.28242        -0.15371
C         -1.18764        -7.99664        -0.13374
C         -0.08274        -7.21322         0.58164
C          1.22816        -7.94089         0.80733
C          2.52950        -7.15772         0.82975
C          3.81322        -7.91045         0.56624
C          5.00076        -7.13854        -0.01744
C          6.32367        -7.87344        -0.08332
C          7.51516        -7.20778        -0.21651
C         -6.25579        -9.35047         0.50352
C         -5.09187       -10.05047         0.51137
C         -3.77177        -9.42875         0.48817
C         -2.56844       -10.09503         0.48110
C         -1.26529        -9.45300         0.31473
C         -0.07853       -10.12988         0.41108
C          1.24192        -9.43211         0.57983
C          2.54059       -10.03993         0.19719
C          3.72681        -9.34952         0.18392
C          4.99163        -9.97220        -0.18729
C          6.18555        -9.31083        -0.26454
O         -6.02151         0.36026        -1.78411
O          1.63520         1.44168        -1.47719
O         -5.12978         5.16694        -1.53799
O          3.29861        -3.42261        -1.56835
O         -0.25787         0.58264         1.75456
O         -8.45812         0.83799         0.87304
O          7.15363        -2.80973         1.37719
O          7.98558        -1.36748        -2.03446
O         -4.74451        -6.25925         1.72642
O         -2.19168         7.85828         2.45445
O          1.85188        -4.86774         1.72054
O         -4.90265         3.34335         1.84637
O          4.71256         5.49660         1.74066
O          3.41394        -7.58123         1.91301
O         -0.38013        -6.43458         1.76041
O          2.84819        -1.00749         1.12326
O          2.74608         7.12145        -0.70084
O          4.49109        -5.17717         1.69058
O         -2.88313        -0.51965        -1.53041
O          6.74116         2.20113        -2.12628
O         -4.84656         0.43791         1.57172
O         -4.07401        -2.83755         1.34773
O         -3.40329        -7.79738        -1.22447
O         -3.27856        -5.34126        -1.42040
O          7.30170        -5.47761         1.48436
O         -2.74787         1.75866         2.27388
O          0.97347         2.81198         2.09266
O         -7.01008        -3.45508        -2.28546
O         -1.27586         4.07194         2.64979
O          1.19204        -8.84366         1.94580
O          9.55503         1.23476        -2.16691
O          0.05089         6.51823         2.68178
O          5.30547         4.37743        -1.53279
H          5.31410         3.69956        -2.24461
O         -7.28154        -2.87388         1.07845
H         -6.96714        -2.00732         1.40746
O         -8.56895         5.25589         1.27205
H         -7.93867         4.60873         1.65148
O          7.46010         4.81561         1.40328
H          6.88516         4.33752         2.04606
O        -10.31134        -1.46583        -2.63934
H         -9.63617        -2.04678        -3.05249
O         -7.67539         5.32286        -2.27136
H         -6.82444         5.46605        -2.74277
O         -1.54774        -1.61332         1.65690
H         -0.91912        -1.23246         2.30882
O         -3.41656         5.49096         2.68113
H         -2.91006         4.82937         3.21068
O         -4.53101         8.61656         1.80654
H         -3.85690         8.67723         2.52453
O         10.68507        -1.25630        -2.17671
H          9.96936        -1.50492        -2.80249
O          5.63740        -0.40867        -1.91928
H          6.37475        -0.61647        -2.54541
O          2.29809         3.80235        -1.23358
H          1.86949         3.20219        -1.88432
O          5.32404        -1.23503         1.60405
H          4.48921        -1.46254         2.07586
O          1.23142        -4.46139        -1.77799
H          1.03002        -3.83352        -2.50412
O          4.64507        -6.93185        -1.43097
H          4.77565        -7.78010        -1.90682
O         -6.65867        -7.85682         2.26099
H         -6.18468        -7.07024         2.62683
O          5.68809         2.92633         1.79379
H          5.12180         2.37336         2.37124
O          3.30860         9.31990        -1.69018
H          3.93596         8.69992        -2.11894
O          7.00669         0.75814         1.24717
H          6.54721         0.07168         1.79448
O         -1.70699        -4.33045         1.48565
H         -1.50944        -4.97853         2.19886
O          1.68743         8.44312         2.56938
H          1.38466         7.73797         3.19334
O          1.07100        -0.87184        -2.06938
H          1.46279        -0.06505        -2.47896
O          5.59256        -2.87620        -1.64616
H          4.80468        -2.73850        -2.22369
O          8.81344         3.60871        -2.85016
H          8.97741         2.65039        -3.02601
O         -0.73273        -8.01933        -1.51510
H         -1.52260        -8.21104        -2.07061
O          0.76632         8.91499        -0.95112
H          1.59509         8.82787        -1.49094
O         -1.13934        -4.07717        -2.11436
H         -2.02010        -4.40866        -2.41182
O        -10.03834         1.38626        -2.47872
H        -10.23251         0.45562        -2.75293
O          0.12747        10.59308         2.22739
H          0.54776         9.85977         2.73770
O         -2.69881         4.78773        -0.79520
H         -3.25725         4.86444        -1.60652
O         -4.76406        -2.15513        -1.99744
H         -4.60896        -1.42024        -2.63003
O         -3.18660         8.27841        -1.57229
H         -2.87131         8.92161        -2.24105
H         11.78568        -0.90337         0.61391
H         11.63378         1.52606         0.56900
H         10.12286         3.62013         0.25026
H          9.21062         5.83789        -1.97952
H          8.19853         7.96488        -1.23933
H          7.01069        10.02860        -0.57228
H          4.88883        11.16987        -0.08444
H          2.68841        10.50549         1.40123
H         -0.12239        11.09251         0.24648
H         -2.30527        10.88014        -0.40050
H         -4.71319        10.90039        -0.84906
H         -6.92981         9.79354        -0.82065
H         -8.13230         7.71419        -1.17474
H         -9.58758         5.57953        -0.49275
H        -10.87287         3.48577        -0.70285
H        -12.09759         1.19987        -0.10597
H        -12.11327        -1.24679        -0.22845
H        -10.94156        -3.36959        -0.28505
H         -9.70643        -5.56638        -0.21863
H         -8.44006        -7.66608        -0.02718
H         -7.20214        -9.91191         0.45667
H         -5.13134       -11.14900         0.43680
H         -2.56448       -11.18318         0.65501
H         -0.09022       -11.21032         0.63176
H          2.53787       -11.09479        -0.12110
H          4.97800       -11.05722        -0.37305
H          7.09665        -9.88609        -0.49015
H          8.42793        -7.79545        -0.40967
H          9.77256        -5.46863        -0.64911
H         10.98759        -3.31778        -0.70894
