         349
 CSIRO Nanostructure Databank - Neutral Graphene Oxide Data Set
C          1.08551         3.59882         0.76979
C         -0.13291         4.37086         0.81779
C          1.12160         6.49692         0.72303
C         -0.13700         5.72836         0.78969
C          1.09849         8.00641         0.41346
C         -0.12160         8.49863        -0.32365
C          1.08902        10.54563        -0.87711
C         -0.12292         9.75659        -0.82561
C          1.09192        11.94076        -1.10392
C         -0.10224        12.69622        -1.18750
C          1.10530        14.82816        -1.18326
C         -0.09098        14.08555        -1.22398
C          1.09394        16.28015        -1.10532
C         -0.10091        17.00773        -0.89461
C          1.13747        19.10597        -0.71996
C         -0.07221        18.38188        -0.71196
C          1.18555        20.48868        -0.25581
C          0.00965        21.12693         0.35375
C          1.17164        23.31770         0.25273
C         -0.02477        22.45018         0.59972
C          1.24486        24.66271         0.96045
C          0.06714        25.37580         1.26737
C          1.34672        27.34979         1.87639
C          0.11163        26.67488         1.75461
C          1.40519        28.73417         2.23533
C          3.59235         3.43859         0.77480
C          2.29716         4.19765         0.60197
C          3.57012         6.26686        -0.10521
C          2.37452         5.67435         0.56639
C          3.56899         7.71771        -0.46387
C          2.35213         8.53972        -0.27870
C          3.56685        10.43697        -1.41822
C          2.33873         9.81698        -0.77525
C          3.54673        11.93882        -1.21451
C          2.36545        12.65197        -1.13165
C          3.55461        14.82321        -1.30967
C          2.36329        14.11472        -1.16758
C          3.52990        16.27798        -1.55714
C          2.30188        17.01728        -1.23292
C          3.61000        19.15261        -1.10358
C          2.34978        18.42149        -1.04691
C          3.54484        20.67859        -1.06820
C          2.35976        21.19133        -0.29569
C          3.71392        23.25822         0.38154
C          2.42668        22.47893         0.49856
C          3.73393        24.55065         0.85733
C          2.50143        25.27354         1.14822
C          3.77142        27.38695         1.53972
C          2.55559        26.65297         1.56532
C          3.81137        28.77292         1.83353
C          2.58981        29.42367         2.20998
C          6.09588         3.52572         0.73103
C          4.83792         4.05654         0.10647
C          6.03578         6.25742        -0.13790
C          4.86259         5.57490         0.05658
C          6.04741         7.66677        -0.47456
C          4.87708         8.38878        -0.62591
C          6.08675        10.45394        -1.11926
C          4.88433         9.78877        -0.99043
C          6.07672        11.89440        -1.47065
C          4.82800        12.63342        -1.11124
C          6.11654        14.83276        -1.51234
C          4.84587        14.14406        -1.19083
C          6.10458        16.30725        -1.35797
C          4.82860        17.04740        -1.57325
C          6.09443        19.20769        -1.38242
C          4.81768        18.50360        -1.29686
C          6.05123        20.68813        -1.23817
C          4.84315        21.30771        -0.61698
C          6.29196        23.05860         0.37151
C          4.90710        22.54492        -0.02470
C          6.31428        24.48942         0.97569
C          5.00837        25.19220         1.37486
C          6.27612        27.49004         1.08778
C          4.99960        26.69492         1.10573
C          6.27268        28.90265         1.52514
C          5.03868        29.50070         1.82458
C          8.49506         3.63191         1.07470
C          7.28746         4.19048         0.58301
C          8.54023         6.33202         0.22246
C          7.34530         5.49043        -0.18910
C          8.51339         7.69617         0.00204
C          7.38213         8.29467        -0.80062
C          8.53219        10.53559        -0.81475
C          7.36262         9.81295        -0.84770
C          8.67690        11.90771        -1.46052
C          7.35161        12.65792        -1.61058
C          8.57956        14.84070        -1.50550
C          7.32558        14.15033        -1.52760
C          8.63074        16.31576        -1.92596
C          7.36937        17.08098        -1.52295
C          8.57440        19.31281        -1.82133
C          7.28723        18.57039        -1.65404
C          8.60596        20.86039        -1.88866
C          7.28756        21.50180        -1.41022
C          8.61219        23.59468        -0.71310
C          7.30622        22.87321        -0.77614
C          8.76321        24.79091         0.16151
C          7.56779        25.30846         0.87605
C          8.73250        27.47695         1.18891
C          7.56221        26.78209         1.08507
C          8.75636        28.91308         1.45001
C          7.50980        29.56841         1.66220
C         10.87468         3.53058         1.48529
C          9.75618         4.26253         0.97186
C         10.92163         6.48895         0.83298
C          9.76511         5.67003         0.60333
C         10.75920         7.95947         1.15263
C          9.75857         8.49499         0.12682
C         10.93011        10.79281         0.03623
C          9.80196         9.91383        -0.36069
C         10.95904        12.14174        -0.31898
C          9.78548        12.75853        -0.87865
C         11.00409        14.95716        -0.99920
C          9.74753        14.13707        -1.12657
C         10.60794        16.32606        -0.50038
C          9.74492        17.07057        -1.22925
C         11.07688        19.31823        -1.01482
C          9.83822        18.54031        -1.50218
C         11.12064        20.77424        -1.48318
C          9.87274        21.49532        -1.31448
C         11.10198        23.53482        -0.65660
C          9.85335        22.84351        -1.00947
C         11.09594        25.04853        -0.61373
C          9.92591        25.48407         0.23410
C         11.28613        27.52462         0.97892
C         10.01048        26.75108         1.00142
C         11.25158        28.99047         1.21844
C          9.98038        29.60156         1.50061
C         13.39159         3.59210         1.95205
C         12.22326         3.88023         1.26122
C         13.31586         6.57836         1.59784
C         12.19035         5.97156         0.81282
C         13.39032         8.04797         1.25240
C         12.08492         8.75593         1.18480
C         13.41600        10.84315         0.51197
C         12.10503        10.18592         0.69967
C         13.42539        12.22205         0.17150
C         12.19483        12.92340        -0.12943
C         13.48544        15.01668        -0.32952
C         12.22295        14.30194        -0.36148
C         13.57877        16.43687        -0.56808
C         12.49134        17.32604        -0.40836
C         13.54509        18.85121        -1.84507
C         12.36346        18.49620        -1.14746
C         13.56699        20.98725        -2.07465
C         12.32304        21.50135        -1.59795
C         13.58463        23.69099        -1.28696
C         12.37594        22.85745        -1.04808
C         13.62751        25.01623        -0.63102
C         12.43868        25.63731        -0.22076
C         13.70968        27.61887         0.42547
C         12.49290        26.93397         0.34387
C         13.74218        29.11073         0.68861
C         12.43305        29.69146         1.16976
C         15.83355         3.68934         1.73228
C         14.60132         4.37966         1.69277
C         15.87066         6.54600         1.60356
C         14.58329         5.78064         1.46193
C         15.85545         7.99891         1.15652
C         14.59172         8.71437         1.08500
C         15.86124        10.82189         0.69096
C         14.61158        10.13968         0.77041
C         15.87797        12.18521         0.36077
C         14.67967        12.89783         0.08635
C         15.96127        15.00507        -0.33963
C         14.70989        14.30352        -0.22351
C         16.00581        16.36044        -0.63926
C         14.80618        17.07822        -0.88752
C         16.10004        19.15410        -1.77650
C         14.80346        18.38504        -1.45930
C         16.05649        20.71539        -1.70426
C         14.83946        21.48383        -1.75925
C         16.12603        23.60391        -1.19279
C         14.87098        22.94584        -1.53559
C         16.12395        24.94607        -0.74206
C         14.88801        25.63504        -0.42615
C         16.19151        27.58927         0.35942
C         14.92337        26.95246         0.10402
C         16.23307        28.85837         1.01535
C         14.95714        29.48773         1.55790
C         18.33932         3.60016         1.19722
C         17.03274         4.27521         1.15670
C         18.32826         6.48500         0.95331
C         17.03254         5.79218         0.99950
C         18.33407         7.90059         0.96266
C         17.06993         8.64551         0.98817
C         18.32883        10.76689         0.92797
C         17.12686        10.09788         0.85531
C         18.36411        12.28609         0.98152
C         17.19847        12.84200         0.19033
C         18.51597        15.02368        -0.03350
C         17.24263        14.28229        -0.19638
C         18.50908        16.50251        -0.07568
C         17.20945        17.18630        -0.41917
C         18.49640        19.37175        -0.75678
C         17.18692        18.63427        -0.82262
C         18.54255        20.73191        -1.34341
C         17.27462        21.41200        -1.55309
C         18.54594        23.56319        -1.31397
C         17.31906        22.87068        -1.38811
C         18.58646        24.91533        -0.86583
C         17.36848        25.59614        -0.53246
C         18.65408        27.56615         0.22114
C         17.39911        26.92378         0.00859
C         18.67608        28.86876         0.80378
C         17.45156        29.47831         1.21735
C         19.48878         4.29016         1.00077
C         20.74706         6.43073         0.76941
C         19.52230         5.73791         0.86765
C         20.76141         7.82057         0.76303
C         19.57114         8.56361         0.85261
C         20.40664        10.65072        -0.28781
C         19.67208        10.06687         0.92174
C         20.42334        11.97741        -0.47461
C         19.77158        12.88050         0.55613
C         20.92770        15.10674         0.14384
C         19.70057        14.35493         0.14565
C         20.96861        16.45962        -0.10575
C         19.77649        17.24249        -0.25312
C         20.96379        19.37881        -0.68767
C         19.76129        18.62464        -0.52482
C         20.96110        20.70131        -1.07396
C         19.75819        21.39972        -1.40184
C         21.03950        23.60144        -1.51839
C         19.77500        22.85630        -1.83801
C         21.04642        24.86342        -1.01924
C         19.84117        25.58055        -0.68294
C         21.09209        27.61403         0.06423
C         19.87874        26.91342        -0.14282
C         21.10270        28.89464         0.61944
C         19.91698        29.52110         0.99543
O         17.43597        13.18910        -1.20777
O         13.49785        19.82094        -2.84297
O          3.31350         6.66946        -1.50201
O         10.89500        26.73511         2.17358
O          6.30843        21.42178        -2.51996
O          6.88066        16.71837        -0.17718
O          5.51906        27.18183        -0.16377
O          6.65494        22.12249         1.35217
O         20.58150        12.91042         1.71877
O          2.03880         6.26914         1.87574
O         11.92109         9.85544         2.16071
O          4.96858        13.41656         0.11882
O         11.93654        22.91175         0.35884
O          9.44189        18.77842        -2.87675
O         10.30249         8.77182        -1.21590
O          4.17978        16.68026        -2.83225
O         17.47589        19.44449         0.34118
O          7.25396        24.54659         2.09956
O         17.63081        17.05096         0.98182
O         14.12283        23.65902        -2.63039
O         16.73236         4.97123        -0.14138
O          7.59534        23.90147        -1.76282
O         12.41112         4.77520         0.15994
O         11.45629        16.92171         0.44799
O          6.61076        12.19348        -2.80715
O         11.42232        15.21864        -2.39582
H         11.65961        14.35349        -2.79560
O          2.37466        22.08351         1.90348
H          3.26253        21.75797         2.16441
O         14.01016        29.75423        -0.60182
H         13.28536        29.51393        -1.21693
O          7.70097         7.88896        -2.18832
H          8.62362         8.20429        -2.35493
O          3.82155         3.37188         2.19855
H          3.45479         4.18084         2.61344
O         12.90400         6.49609         3.01545
H         12.07381         7.01701         3.11902
O         16.13165         6.57263         3.05233
H         15.32671         6.92991         3.48808
O         10.86480        19.52277         0.40963
H         10.92831        18.64748         0.86216
O          3.46329        10.20254        -2.85470
H          3.49799         9.23338        -3.00364
O          4.83025         3.63224        -1.28602
H          5.64520         3.99666        -1.70541
O          8.74242        16.32782        -3.35792
H          9.67603        16.12028        -3.58132
O          4.87252        25.07943         2.81896
H          5.71195        24.68808         3.16002
O          8.72800        21.20754        -3.28721
H          7.81943        21.20809        -3.66807
O          7.52527         5.13593        -1.59500
H          7.59066         5.99326        -2.09134
O         10.85130        25.53191        -1.96786
H         10.00141        25.15395        -2.28318
O          1.11644        23.61858        -1.16440
H          0.30269        24.13433        -1.33977
O          9.13925        11.58983        -2.80873
H          8.32738        11.48393        -3.36054
O         19.66797        22.84532        -3.30412
H         19.58378        23.77513        -3.60331
O         18.16303        12.68545         2.34935
H         19.09028        12.87300         2.67575
O          3.34120        21.10095        -2.45579
H          4.22399        21.17183        -2.88324
O          1.05011         8.66979         1.71580
H          1.60033         8.12792         2.32706
O         15.07580        30.90583         1.60734
H         14.98656        31.22477         0.68301
O         20.41493        10.34358         2.12420
H         20.62869        11.32721         2.13576
O         10.16139         8.06081         2.46399
H         10.45909         8.92712         2.83791
O         16.52953        18.79773        -3.11175
H         15.83262        19.08780        -3.73826
H          1.01929         2.50461         0.85418
H         -1.08652         3.82745         0.87830
H         -1.09446         6.26749         0.79880
H         -1.04667         7.90595        -0.32502
H         -1.04823        10.17085        -1.25185
H         -1.07197        12.18007        -1.19098
H         -1.05583        14.60771        -1.27229
H         -1.06660        16.48856        -0.83736
H         -1.01996        18.90349        -0.52466
H         -0.87216        20.51230         0.58466
H         -0.93938        22.90339         1.00998
H         -0.91263        24.89742         1.12578
H         -0.82080        27.20429         1.99766
H          0.47058        29.24929         2.50116
H          3.48420         2.38799         0.40560
H          2.61591        30.49306         2.46465
H          6.06742         2.55821         1.25432
H          5.01899        30.55912         2.12662
H          8.44647         2.63620         1.54242
H          7.51125        30.63307         1.94265
H         10.65530         2.64247         2.09648
H          9.96624        30.68254         1.70963
H         13.43843         2.76687         2.67620
H         12.42532        30.77762         1.35277
H         15.86476         2.65416         2.10547
H         14.79791        29.12039         2.60631
H         18.36248         2.51973         1.40308
H         17.48028        30.46081         1.71136
H         20.45233         3.75934         1.01591
H         21.68839         5.86521         0.71548
H         21.71878         8.35696         0.70833
H         20.90082         9.96786        -0.99718
H         20.96380        12.42302        -1.32450
H         21.86261        14.56086         0.33010
H         21.94753        16.95798        -0.14653
H         21.92999        18.89664        -0.48519
H         21.92323        21.22564        -1.14981
H         21.99605        23.14195        -1.80732
H         22.01628        25.35812        -0.86786
H         22.05097        27.15553        -0.21130
H         22.06216        29.40942         0.76752
H         19.93755        30.52459         1.44360
