         204
 CSIRO Nanostructure Databank - Neutral Graphene Oxide Data Set
C        -11.08157         0.70855        -0.26818
C         -9.84119         1.43720        -0.34695
C         -8.63700         0.67951        -0.45838
C         -7.37318         1.43327        -0.52085
C         -6.06850         0.69656        -0.17987
C         -4.89416         1.41567         0.30740
C         -3.73555         0.66644         0.62631
C         -2.49405         1.38468         0.98152
C         -1.19099         0.66709         0.71358
C          0.01221         1.47554         0.45612
C          1.16958         0.79065        -0.22634
C          2.47697         1.48168         0.04085
C          3.67804         0.74389        -0.18217
C          4.91761         1.49507        -0.41212
C          6.21803         0.76007        -0.65962
C          7.47206         1.49882        -0.43552
C          8.67274         0.77653        -0.35125
C          9.91518         1.49738        -0.26184
C         11.12929         0.73483        -0.13195
C         -9.81159         2.84226        -0.33529
C         -8.59395         3.58386        -0.30476
C         -7.35060         2.88013        -0.29464
C         -6.12741         3.55573        -0.07456
C         -4.89724         2.84899         0.23301
C         -3.72339         3.57586         0.51007
C         -2.53032         2.90026         1.14298
C         -1.22395         3.59521         0.80473
C          0.00565         2.84896         0.59976
C          1.25382         3.59905         0.42699
C          2.47359         2.85918         0.25281
C          3.74073         3.58804         0.43464
C          5.02591         2.86775         0.12761
C          6.24792         3.63612        -0.15423
C          7.46280         2.91905        -0.34617
C          8.70571         3.64140        -0.33186
C          9.91616         2.89867        -0.30780
C         -8.57308         4.99963        -0.28165
C         -7.35900         5.70425        -0.21710
C         -6.12298         4.98532        -0.05429
C         -4.90466         5.69616         0.10728
C         -3.68959         4.98971         0.38635
C         -2.46211         5.70936         0.55479
C         -1.23042         4.97816         0.72437
C          0.04915         5.73168         0.98248
C          1.28906         4.98565         0.55920
C          2.51591         5.72973         0.42773
C          3.75038         5.05139         0.33770
C          4.97361         5.74375         0.14835
C          6.21903         5.03527        -0.05329
C          7.45090         5.76486        -0.21533
C          8.66404         5.06036        -0.31127
C         -7.32076         7.13054        -0.28764
C         -6.12223         7.82909        -0.20970
C         -4.88517         7.12174         0.01470
C         -3.66224         7.82452         0.11636
C         -2.43823         7.12711         0.38345
C         -1.20075         7.85228         0.40756
C          0.03814         7.18001         0.56637
C          1.25901         7.86618         0.49083
C          2.50260         7.16325         0.41060
C          3.72481         7.86822         0.20978
C          4.95036         7.16820         0.07360
C          6.18609         7.87988        -0.16433
C          7.39000         7.19454        -0.26511
C         -6.08040         9.26626        -0.34602
C         -4.89940         9.94183        -0.30479
C         -3.64601         9.25548        -0.08910
C         -2.44585         9.94606        -0.09504
C         -1.19538         9.28361         0.14981
C         -0.00876         9.99605         0.16705
C          1.26551         9.36399         0.64153
C          2.52309        10.01435         0.14850
C          3.69788         9.31639         0.04460
C          4.94866         9.99195        -0.25039
C          6.12709         9.31817        -0.31687
C        -11.09819        -0.65577        -0.26893
C         -9.90715        -1.46367        -0.41077
C         -8.64181        -0.74026        -0.53934
C         -7.37981        -1.42278        -0.44477
C         -6.21972        -0.73170         0.14761
C         -4.93285        -1.50148         0.41821
C         -3.67876        -0.74100         0.47539
C         -2.44501        -1.45065         0.31676
C         -1.21680        -0.74807         0.28977
C          0.00361        -1.42810         0.03652
C          1.23154        -0.70889        -0.05074
C          2.44775        -1.39141        -0.20911
C          3.69182        -0.65401        -0.32441
C          4.94080        -1.36328        -0.46344
C          6.18565        -0.70124        -0.55571
C          7.42735        -1.40189        -0.44640
C          8.65361        -0.66373        -0.33643
C          9.86771        -1.36784        -0.13313
C         11.10190        -0.62986        -0.04807
C        -10.05743        -2.84972        -0.20665
C         -9.05362        -3.82235        -0.50360
C         -7.21011        -2.77832        -0.72452
C         -6.11550        -3.57917        -0.33075
C         -4.90028        -2.92502         0.05974
C         -3.68175        -3.58380        -0.04524
C         -2.45110        -2.87272         0.07220
C         -1.22106        -3.56824        -0.10321
C          0.00516        -2.85622        -0.09652
C          1.24752        -3.55232        -0.22009
C          2.46558        -2.82841        -0.26569
C          3.70678        -3.52893        -0.39884
C          4.93435        -2.79700        -0.47061
C          6.16420        -3.49368        -0.59784
C          7.43541        -2.83067        -0.42923
C          8.65523        -3.51753        -0.07475
C          9.83088        -2.76855         0.06128
C         -8.74952        -5.05797         0.05218
C         -7.46423        -5.71241        -0.10798
C         -6.21239        -5.01959        -0.31335
C         -4.98252        -5.73659        -0.23516
C         -3.69919        -5.00106        -0.56709
C         -2.42529        -5.73908        -0.24593
C         -1.21351        -5.01075        -0.21765
C          0.02272        -5.71119        -0.24354
C          1.25664        -4.98711        -0.28015
C          2.48296        -5.68224        -0.36809
C          3.71156        -4.95745        -0.42318
C          4.93872        -5.65303        -0.62949
C          6.06701        -4.88564        -0.86492
C          7.85129        -5.87428        -0.13322
C          8.67194        -4.91295         0.38451
C         -7.40456        -7.11274         0.09893
C         -6.19793        -7.82187         0.12579
C         -4.96722        -7.11125        -0.00010
C         -3.68939        -7.83027         0.18710
C         -2.41439        -7.14027        -0.12722
C         -1.20313        -7.86183        -0.16751
C          0.03366        -7.14331        -0.29136
C          1.26867        -7.83037        -0.39440
C          2.50288        -7.12590        -0.41832
C          3.72930        -7.83817        -0.39834
C          5.05700        -7.17214        -0.70031
C          6.21034        -7.74627         0.16015
C          7.43077        -7.15200         0.40359
C         -6.17738        -9.27576         0.16591
C         -5.02577        -9.98961         0.16794
C         -3.71097        -9.32714         0.31615
C         -2.45421       -10.13895         0.03770
C         -1.17951        -9.31981        -0.10610
C         -0.00456        -9.99068        -0.24697
C          1.27933        -9.31441        -0.64316
C          2.51720        -9.94788        -0.08198
C          3.69558        -9.23521        -0.04568
C          4.90927        -9.82626         0.49315
C          6.04282        -9.09815         0.66005
O         -3.61125        -8.50008         1.51575
O         -1.74765         0.79001         2.09451
O          5.42659         1.33878        -1.77265
O          1.36104        -9.48186        -2.12049
H          0.68757        -8.88751        -2.51464
O          5.39048        -7.52665        -2.07556
H          6.21708        -7.03664        -2.29309
O          7.21197        -5.53761        -1.35150
O         -8.16995        -3.40317        -1.52755
O         -6.43383         0.98327        -1.56404
O         -5.88165        -1.13261         1.50065
O          4.57952         3.00760         1.51449
O         -2.65164       -10.91450        -1.15854
H         -2.56152       -10.32460        -1.93443
O         -3.68665        -4.88012        -2.03976
H         -4.51333        -4.41931        -2.29967
O          0.90568         0.98416        -1.67286
H          1.67653         0.61956        -2.15915
O          0.13281         5.80529         2.46104
H         -0.03838         4.90355         2.80961
O         -2.70990         3.14052         2.58206
H         -2.25786         2.39402         3.04137
O          1.26753         9.59661         2.11974
H          0.60556         8.98080         2.50436
H         12.03762        -1.19265         0.08524
H         12.08615         1.27381        -0.07034
H         10.87532         3.43760        -0.28113
H          9.60866         5.62327        -0.35703
H          8.32099         7.75924        -0.42588
H          7.06501         9.85907        -0.51202
H          4.92629        11.08364        -0.38459
H          2.52086        11.10601         0.00558
H         -0.02984        11.08632         0.01597
H         -2.44143        11.03265        -0.26869
H         -4.87820        11.03405        -0.43372
H         -7.02573         9.80496        -0.50705
H         -8.26260         7.68085        -0.43238
H         -9.52102         5.55510        -0.33574
H        -10.76362         3.39315        -0.30981
H        -12.02127         1.27313        -0.18091
H        -12.06006        -1.18242        -0.17650
H        -11.01140        -3.19393         0.22451
H         -9.48907        -5.55641         0.69739
H         -8.34708        -7.66686         0.22479
H         -7.14444        -9.79832         0.10977
H         -5.04717       -11.08595         0.08465
H         -2.32256       -10.87874         0.86977
H         -0.01118       -11.09179        -0.23542
H          2.49862       -11.00614         0.21870
H          4.86794       -10.86948         0.83935
H          6.91449        -9.56181         1.14817
H          8.13020        -7.67823         1.07507
H          9.31304        -5.14813         1.24770
H         10.76152        -3.28562         0.33917
