         314
 CSIRO Nanostructure Databank - Neutral Graphene Oxide Data Set
C         30.54408        56.84440        -0.86370
C         30.54725        58.22430        -1.23122
C         29.48108        58.77764        -1.99039
C         30.68028        60.87054        -2.24599
C         29.55103        60.08638        -2.46965
C         32.83055        52.81326         0.76691
C         32.84284        54.18665         0.52296
C         31.70922        54.84385        -0.05529
C         32.68057        57.09281         0.39064
C         31.62443        56.23628        -0.20460
C         32.74585        58.55668        -0.07029
C         31.67871        59.03934        -0.95414
C         32.95282        61.10702        -1.27905
C         31.77107        60.35362        -1.49283
C         35.25911        48.59092         1.12788
C         35.22691        50.01698         1.14465
C         34.02716        50.70438         1.27322
C         35.26612        52.88110         1.19765
C         33.96791        52.17947         1.51198
C         35.25676        54.29622         1.06829
C         34.01607        54.96175         0.84989
C         35.19474        57.24441         1.05302
C         33.93191        56.43135         0.90151
C         35.19384        58.71379         0.66134
C         34.01579        59.29216        -0.00525
C         35.32828        61.28960        -0.69171
C         34.09044        60.56594        -0.62304
C         37.62612        44.20664         0.71853
C         37.24211        45.54205         0.47420
C         36.35729        46.41420         1.10952
C         37.69251        48.58751         0.83123
C         36.44249        47.85672         0.96203
C         37.70392        50.02476         1.02485
C         36.48513        50.73345         1.11490
C         37.71505        52.87736         1.03402
C         36.48255        52.16567         1.14625
C         37.70486        54.29912         0.99187
C         36.50237        55.01217         1.03091
C         37.79067        57.23792         0.80529
C         36.51363        56.50343         1.10662
C         37.79293        58.66511         0.40681
C         36.53530        59.43575         0.42519
C         37.78580        61.34157        -0.57099
C         36.53541        60.71998        -0.31225
C         40.16065        40.09101         0.05646
C         40.15286        41.51082         0.08846
C         38.95479        42.22168         0.28962
C         40.09788        44.38220         0.03236
C         38.86872        43.63616         0.28902
C         40.17394        45.81914         0.11270
C         39.02773        46.63579         0.05106
C         40.19311        48.59819         0.85244
C         38.94466        47.93986         0.59753
C         40.18452        49.97728         1.45838
C         38.93896        50.75426         1.09753
C         40.20669        52.90689         1.13430
C         38.96007        52.16134         1.06457
C         40.26570        54.28138         0.89835
C         38.98036        54.96996         0.62647
C         40.27435        57.14920         0.25392
C         38.98655        56.43648         0.39229
C         40.22175        58.50744        -0.01033
C         38.97450        59.25846         0.00742
C         40.24038        61.34017        -0.55624
C         39.00184        60.67036        -0.37699
C         42.59623        35.80279        -0.33285
C         42.54610        37.17888        -0.10643
C         41.35103        37.93899        -0.12864
C         42.62554        40.06332         0.03776
C         41.35387        39.34706         0.00364
C         42.63623        41.52056        -0.04704
C         41.38830        42.24633        -0.05590
C         42.57711        44.42566        -0.25596
C         41.32361        43.66091        -0.10074
C         42.62748        45.85579         0.08604
C         41.41899        46.53022         0.27979
C         42.63240        48.71836         0.52546
C         41.38008        47.93753         0.60050
C         42.65571        50.11295         1.02070
C         41.47929        50.73530         1.29113
C         42.73157        52.96210         1.58755
C         41.43554        52.19784         1.54161
C         42.74743        54.37095         1.11781
C         41.50265        55.02100         0.85979
C         42.72381        57.08460         0.22806
C         41.51494        56.41518         0.40927
C         42.73394        58.40885        -0.39858
C         41.43291        59.18480        -0.48221
C         42.70722        61.33482        -0.57814
C         41.47464        60.66643        -0.53814
C         45.01797        33.05722        -1.15016
C         43.82102        33.72115        -0.87752
C         45.08250        35.72197        -0.27305
C         43.83102        35.07957        -0.46126
C         45.10122        37.10695         0.20718
C         43.79974        37.88824         0.23370
C         45.10173        40.05089        -0.06181
C         43.80895        39.35948         0.12427
C         45.13639        41.51869         0.12775
C         43.86357        42.19518         0.01604
C         45.07769        44.37995         0.35284
C         43.88635        43.64794        -0.13931
C         45.09022        45.83987         0.20967
C         43.90095        46.52912         0.17281
C         45.19997        48.70789         0.47112
C         43.91225        48.00674         0.26007
C         45.21932        50.09034         0.75337
C         44.00093        50.66077         1.47984
C         45.29710        52.93493         1.38341
C         44.02990        52.19295         1.63628
C         45.25107        54.39449         1.09574
C         43.98637        55.04269         0.96536
C         45.28946        57.14787         0.42404
C         43.97458        56.54670         0.87107
C         45.30454        58.51606        -0.13277
C         44.01125        59.18559        -0.53162
C         45.16546        61.37991        -0.48788
C         43.96965        60.67190        -0.53105
C         46.24245        33.71152        -1.04095
C         47.56499        35.73206        -0.56784
C         46.31338        35.06722        -0.60538
C         47.72850        37.11242        -0.13777
C         46.41198        37.84486         0.23543
C         47.67619        40.02337         0.12003
C         46.40466        39.30391        -0.04105
C         47.65098        41.46112         0.54412
C         46.34276        42.17371         0.26801
C         47.62895        44.37661         0.19897
C         46.37572        43.63030         0.49674
C         47.60021        45.73371         0.00492
C         46.40192        46.51611         0.51172
C         47.59130        48.68743         0.09592
C         46.38114        47.99368         0.22431
C         47.63874        50.06503         0.36162
C         46.46649        50.76680         0.75083
C         47.71630        52.89075         0.97999
C         46.53879        52.19696         1.02364
C         47.76453        54.35885         1.36124
C         46.46655        55.09052         1.03316
C         47.74907        57.26925         0.84001
C         46.47100        56.50403         0.75868
C         47.74623        58.71523         0.38292
C         46.49317        59.35472        -0.03913
C         47.64907        61.50397        -0.31922
C         46.45234        60.74225        -0.33055
C         48.87603        37.96001        -0.44558
C         50.11389        40.11075        -0.12841
C         48.88767        39.34029        -0.10943
C         50.11880        41.50310        -0.05090
C         48.87252        42.23510         0.09708
C         50.06851        44.35284        -0.31034
C         48.85104        43.61483        -0.00350
C         50.03451        45.67835        -0.69930
C         48.77093        46.44564        -0.57211
C         49.99921        48.76830        -0.64518
C         48.75594        47.97323        -0.47352
C         50.11224        50.06605        -0.27063
C         48.96939        50.70659         0.45473
C         50.24736        52.90491         0.60268
C         48.99277        52.17347         0.80083
C         50.24312        54.33577         0.72128
C         49.02193        55.03993         0.84943
C         50.30285        57.24862         0.40900
C         49.05521        56.51673         0.85318
C         50.27663        58.67051        -0.02897
C         48.97786        59.31484        -0.19412
C         50.23606        61.50617        -0.46944
C         48.93663        60.84999        -0.52958
C         51.34059        42.25699        -0.08325
C         52.52840        44.43901        -0.04602
C         51.34373        43.64329        -0.19158
C         52.53880        45.78893        -0.41582
C         51.37036        46.13799        -1.32141
C         52.88411        48.68295        -1.45893
C         50.97947        48.07569        -1.49351
C         52.59703        50.23236        -1.12222
C         51.23360        50.96352        -0.80450
C         52.64875        52.53835         0.56425
C         51.39030        52.14182         0.17456
C         52.70758        54.59383         0.85809
C         51.47236        55.08473         0.49201
C         52.71657        57.17001        -0.21688
C         51.41009        56.41535        -0.21250
C         52.69665        58.59889        -0.59987
C         51.42115        59.33349        -0.41362
C         52.69540        61.46141        -0.39511
C         51.42740        60.78634        -0.51372
C         53.63201        46.62948        -0.11035
C         54.91184        48.72227        -0.09482
C         53.76181        47.99241        -0.44336
C         55.07621        50.12038        -0.33609
C         53.90072        50.92280        -0.79921
C         55.12834        52.97932         0.19792
C         53.84418        52.38038        -0.33115
C         55.17314        54.37648         0.44031
C         53.95410        55.15303         0.46405
C         55.17828        57.21528        -0.00890
C         53.92211        56.52262         0.05247
C         55.24257        58.58338        -0.38879
C         54.00733        59.37379        -0.68866
C         55.08343        61.64648        -0.01221
C         53.94646        60.84978        -0.40333
C         56.24231        50.79035         0.01861
C         57.56104        52.91608         0.23803
C         56.32857        52.23190         0.13669
C         57.65752        54.32721         0.35646
C         56.42366        55.06662         0.49337
C         57.49338        57.29075         0.61935
C         56.35132        56.50947         0.40199
C         57.67842        58.52918        -0.03305
C         56.50812        59.14178        -0.57851
C         57.58850        61.88966         0.32013
C         56.42573        61.35818        -0.28868
C         58.97070        54.91489         0.13854
C         60.40556        57.07778         0.11738
C         59.34986        56.20816         0.50632
C         60.23973        58.50431         0.13760
C         58.97288        59.09768        -0.16549
C         60.06121        61.55888         0.84281
C         58.87095        61.31328         0.14660
C         61.33655        59.41907         0.29720
C         61.22125        60.74952         0.69923
O         49.25970        51.11364         1.83145
O         45.73761        39.61867        -1.33827
O         44.40612        37.36624         1.47951
O         47.74137        58.35948         1.81310
O         35.82540        59.52607         1.70126
O         38.80669        55.52689        -0.75464
O         41.98722        58.50184        -1.65967
O         53.32779        58.92945        -1.89997
O         37.92261        46.13675        -0.62150
O         53.11829        48.40150        -2.65577
O         43.39679        44.10020        -1.43628
O         44.85590        52.63247         2.76000
O         32.19932        58.13238         1.25711
O         44.82977        58.58329        -1.56958
O         44.15268        50.03919         2.73690
O         53.40655        50.86152        -2.17404
O         52.76234        53.40772         1.64406
O         58.48153        56.81330         1.46284
O         59.02139        60.30444        -0.84673
O         34.36193        56.96894         2.21033
O         48.79973        59.78347        -1.54461
O         43.17992        48.64477        -0.86122
O         48.39422        47.28059        -1.72365
O         47.26831        37.41167         1.26723
O         41.95204        52.72292         2.81661
O         56.62162        60.34285        -1.26228
O         51.56539        45.93219        -2.56352
O         50.06135        57.05683         1.81853
O         45.57487        43.99091         1.69364
O         37.38560        56.98668         2.19414
O         50.63827        48.15073        -2.73247
H         51.25399        47.51379        -3.22949
O         47.88502        54.39388         2.82180
H         47.21602        53.77825         3.19422
O         50.99247        56.21892        -1.59929
H         51.74366        55.82479        -2.09135
O         40.05833        49.75727         2.91109
H         40.62771        50.41362         3.36953
O         46.55174        46.48898         1.97465
H         46.27291        45.58853         2.28105
O         47.72940        41.43410         2.02444
H         48.54905        40.95061         2.26441
O         33.72379        52.36083         2.96709
H         33.74228        53.32517         3.14889
O         50.75534        51.52363        -2.04478
H         50.82833        50.84025        -2.74435
O         53.50010        53.22115        -1.47353
H         53.24445        52.60182        -2.20728
O         43.87422        57.02833         2.28251
H         44.51563        56.51130         2.81790
H         29.71879        56.21025        -1.21977
H         28.59853        58.15839        -2.20322
H         30.73947        61.89175        -2.64697
H         28.71165        60.49631        -3.04859
H         31.94056        52.21957         0.51315
H         30.86573        54.22488        -0.39601
H         33.02331        62.11859        -1.70527
H         34.30878        48.04811         1.24227
H         33.08405        50.13777         1.31511
H         35.32995        62.26584        -1.19819
H         36.94907        43.55604         1.29290
H         35.56755        46.01757         1.76493
H         37.79394        62.36576        -0.97223
H         39.19910        39.55699         0.08972
H         38.03327        41.64612         0.46468
H         40.22964        62.43037        -0.70500
H         41.65814        35.25968        -0.52399
H         40.39129        37.42037        -0.27341
H         42.70584        62.43481        -0.61588
H         44.99280        32.00756        -1.47509
H         42.85999        33.20263        -1.00268
H         45.13814        62.47781        -0.55012
H         47.17401        33.17890        -1.27934
H         48.42814        35.23554        -1.03595
H         47.59692        62.60199        -0.28670
H         49.77192        37.50284        -0.88987
H         51.06599        39.57710        -0.26316
H         50.26706        62.59594        -0.32273
H         52.29572        41.71355        -0.02914
H         53.42684        43.98294         0.39927
H         52.65907        62.55171        -0.24330
H         54.44072        46.18791         0.49686
H         55.72706        48.19695         0.42816
H         54.86237        62.58118         0.52737
H         57.12657        50.19794         0.29889
H         58.49021        52.33438         0.14113
H         57.47244        62.68474         1.06997
H         59.69913        54.29016        -0.40162
H         61.36858        56.66971        -0.22552
H         60.12523        62.43908         1.49827
H         62.34219        58.97455         0.35499
H         62.15667        61.20846         1.06023
