         232
 CSIRO Nanostructure Databank - Neutral Graphene Oxide Data Set
C        -11.18499         0.66326        -0.22098
C         -9.99305         1.47415        -0.39367
C         -8.74031         0.77853        -0.68518
C         -7.49626         1.47332        -0.84520
C         -6.20396         0.74528        -0.55801
C         -4.94757         1.49507        -1.09738
C         -3.71331         0.75570        -0.67509
C         -2.65022         1.34346        -0.03422
C         -1.62911         0.43128         0.44913
C          0.16672         1.44005         1.00130
C          1.27013         0.66025         0.73102
C          2.55261         1.40106         0.71604
C          3.84867         0.67686         0.54001
C          5.03043         1.43407         0.04474
C          6.22645         0.75004        -0.24527
C          7.40865         1.49122        -0.44292
C          8.72250         0.82711        -0.59332
C          9.92590         1.55184        -0.13901
C         11.10190         0.75571         0.10438
C        -10.13816         2.82869        -0.07501
C         -9.12107         3.83211        -0.29829
C         -7.33100         2.83715        -1.08679
C         -6.15191         3.56687        -0.73479
C         -4.93533         2.91591        -0.60036
C         -3.73738         3.56203        -0.11904
C         -2.52461         2.79946         0.17983
C         -1.32658         3.45803         0.49965
C          0.00091         2.84312         0.65249
C          1.16893         3.57748         0.43485
C          2.48403         2.90311         0.58787
C          3.73461         3.62023         0.17230
C          4.97389         2.84543        -0.11701
C          6.14210         3.56012        -0.42121
C          7.38883         2.89726        -0.45185
C          8.63756         3.64944        -0.34192
C          9.85998         2.93500        -0.08189
C         -8.72160         4.85099         0.52039
C         -7.34887         5.51728         0.51228
C         -6.31177         5.05605        -0.54804
C         -4.98079         5.68848        -0.18245
C         -3.77829         4.95391         0.03339
C         -2.64690         5.72316         0.69227
C         -1.29252         4.94803         0.86366
C         -0.06581         5.69360         0.31105
C          1.15388         5.00164         0.19344
C          2.37967         5.71063        -0.10396
C          3.63268         5.03677        -0.25526
C          4.82871         5.73579        -0.49151
C          6.10362         5.00424        -0.83803
C          7.36362         5.76398        -0.48127
C          8.57988         5.04659        -0.31675
C         -7.38095         7.04452         0.49215
C         -6.24872         7.76713         0.21314
C         -5.00822         7.07619        -0.08340
C         -3.76099         7.81215        -0.31884
C         -2.49529         7.07078        -0.01077
C         -1.27544         7.84276         0.23620
C         -0.06393         7.12291         0.25375
C          1.16612         7.84788         0.04668
C          2.34130         7.13116        -0.23185
C          3.56276         7.85682        -0.60263
C          4.84638         7.14761        -0.57569
C          6.06992         7.86505        -0.53193
C          7.30449         7.15467        -0.43853
C         -6.16583         9.22083         0.36192
C         -5.03762         9.92228         0.12954
C         -3.77115         9.32718        -0.44760
C         -2.50526         9.96080         0.09919
C         -1.33548         9.27579         0.29744
C         -0.06442         9.98595         0.72098
C          1.18596         9.28762         0.21216
C          2.34901        10.00183         0.09958
C          3.57629         9.39574        -0.42438
C          4.89276        10.00938        -0.20296
C          6.04625         9.29683        -0.33655
C        -11.17725        -0.69479        -0.28020
C         -9.94478        -1.42345        -0.44256
C         -8.72079        -0.66948        -0.61868
C         -7.52412        -1.41245        -0.74782
C         -6.26794        -0.68663        -1.03178
C         -4.97223        -1.42498        -1.10147
C         -3.66644        -0.67720        -1.03812
C         -2.37154        -1.42910        -0.91617
C         -1.30429        -0.76835        -0.12664
C         -0.06809        -1.52614         0.17864
C          1.24271        -0.82265         0.60145
C          2.52623        -1.51769         0.24771
C          3.81761        -0.82612         0.43532
C          5.10211        -1.56341         0.11030
C          6.38963        -0.74888        -0.01916
C          7.46449        -1.36958        -0.90207
C          8.77722        -0.64949        -0.76840
C          9.97366        -1.40718        -0.36262
C         11.12391        -0.61860         0.01485
C         -9.93843        -2.81535        -0.40203
C         -8.73216        -3.57522        -0.44776
C         -7.49152        -2.84040        -0.63830
C         -6.27106        -3.53460        -0.52206
C         -4.99781        -2.80821        -0.55435
C         -3.66327        -3.55121        -0.44590
C         -2.40031        -2.90722        -0.80715
C         -1.19701        -3.61274        -0.67879
C          0.08783        -2.79409        -0.66879
C          1.29222        -3.58962        -0.24253
C          2.55305        -2.86321        -0.06195
C          3.78797        -3.57390        -0.39378
C          5.00167        -2.94425        -0.41779
C          6.11318        -3.58297        -1.24367
C          7.46691        -2.84454        -1.14887
C          8.71088        -3.55253        -0.70799
C          9.90466        -2.78225        -0.35535
C         -8.72547        -4.97010        -0.27051
C         -7.51954        -5.70729        -0.09422
C         -6.27200        -4.92539        -0.05174
C         -4.94723        -5.72624        -0.04125
C         -3.73257        -5.03042        -0.53987
C         -2.42402        -5.79218        -0.63661
C         -1.18969        -5.00875        -0.53194
C          0.06913        -5.73417        -0.35507
C          1.28943        -4.94231        -0.16482
C          2.60382        -5.60249         0.17386
C          3.62894        -5.03626        -0.83204
C          4.92601        -5.86335        -0.86248
C          6.21448        -5.12096        -1.05561
C          7.54596        -5.82185        -0.74170
C          8.66106        -4.87386        -0.37360
C         -7.45350        -7.08680         0.14195
C         -6.21868        -7.81636         0.20481
C         -5.00213        -7.18754        -0.07636
C         -3.73923        -7.96198        -0.09740
C         -2.42755        -7.25359        -0.27013
C         -1.27502        -7.74732         0.59280
C          0.04458        -7.16100         0.12129
C          1.28085        -7.71571         0.74994
C          2.55226        -7.10212         0.31381
C          3.70891        -7.81624         0.33903
C          4.95356        -7.33494        -0.38658
C          6.22019        -7.68131         0.37672
C          7.36306        -6.95607         0.25700
C         -6.19075        -9.23510         0.53250
C         -5.02320        -9.91047         0.75256
C         -3.72745        -9.29613         0.56008
C         -2.52871        -9.92968         0.81505
C         -1.23899        -9.26175         0.73809
C         -0.04585        -9.90227         0.95497
C          1.24686        -9.18120         1.10396
C          2.56124        -9.85289         1.15897
C          3.72655        -9.17768         0.86340
C          5.04435        -9.70754         1.18929
C          6.17767        -8.96089         1.07512
O         -5.02185         1.54725        -2.53813
H         -5.01528         0.61724        -2.87308
O          3.01163        -5.21174         1.46792
O          1.12559        -8.08723         2.14811
O         -6.06420         0.62652         0.88307
H         -6.14420         1.51985         1.27934
O          5.61128        -3.39535        -2.59409
H          6.35384        -3.52671        -3.22088
O          3.41342         8.76929        -1.73766
O          0.40237        -1.58331         1.53774
O          8.96953         0.23243        -1.92924
O         -6.72484         5.62579        -1.80933
H         -6.14201         5.27533        -2.51418
O         -5.49080        -5.15166         1.17800
O         -4.26263        -2.90182         0.72084
O         -0.07594        11.35818         0.33544
H         -0.09882        11.40317        -0.64237
O          6.09678         4.94714        -2.31421
H          6.14426         5.87039        -2.64358
O         -8.41269         3.61275        -1.50244
O         -3.24945        -5.50117        -1.82075
O          3.39273         1.05727         1.88410
O          3.33146         3.54806         1.59838
O         -0.94828         0.84495         1.59401
O         -1.03191         4.92870         2.30748
H         -0.22589         4.38800         2.45855
O         -2.96942         7.14866        -1.39389
O         -6.77201         5.14620         1.79972
H         -7.25712         5.62112         2.50626
O          0.32947        -2.30986        -2.01660
H          0.47401        -3.08524        -2.59952
O         -3.77994         9.64955        -1.86956
H         -3.27793         8.92928        -2.31637
O         -1.51653        -7.18710         1.91034
H         -0.73181        -7.42267         2.46510
O          4.97379        -8.18019        -1.57547
H          5.24842        -7.61465        -2.33321
O          7.05366        -0.83875         1.28223
H          6.32907        -0.87167         1.95625
O         -5.70408        -1.10762        -2.32755
O          4.62073        -1.46217         1.49476
O          0.18988        -6.90447        -1.28883
O         -3.16076         6.08772         1.99955
H         -2.66834         5.56286         2.67295
O          3.05941        -5.05937        -2.14997
H          3.79765        -4.85316        -2.77004
O          8.01570        -6.45571        -1.96805
H          7.21225        -6.75402        -2.45365
O         -2.92716        -8.06592        -1.35159
O          7.42337        -1.86860        -2.25876
O          5.55154        -5.77918        -2.18992
O         -2.79026        -0.90313        -2.21928
H         12.06012        -1.14970         0.24538
H         12.02488         1.28088         0.39449
H         10.76017         3.51732         0.16949
H          9.50398         5.61836        -0.13801
H          8.22925         7.72983        -0.27704
H          7.01204         9.80181        -0.18477
H          4.93101        11.06590         0.10188
H          2.36332        11.05999         0.40303
H         -0.02949         9.97151         1.84763
H         -2.48480        11.06000         0.16806
H         -5.04425        11.01363         0.27439
H         -7.06655         9.74417         0.71882
H         -8.29264         7.56246         0.82973
H         -9.28321         4.99144         1.45952
H        -11.08117         3.13512         0.40623
H        -12.13315         1.19269        -0.04446
H        -12.11215        -1.26131        -0.16075
H        -10.89212        -3.34754        -0.26491
H         -9.68718        -5.49996        -0.19254
H         -8.39230        -7.65483         0.22933
H         -7.15170        -9.74509         0.69561
H         -5.05662       -10.95575         1.09522
H         -2.54082       -10.97665         1.15771
H         -0.03795       -10.99634         1.08610
H          2.60587       -10.89806         1.50278
H          5.09565       -10.69934         1.66430
H          7.13000        -9.36067         1.45721
H          8.27731        -7.31761         0.75620
H          9.55883        -5.33742         0.06572
H         10.78213        -3.36373        -0.03073
