         618
 CSIRO Nanostructure Databank - Neutral Graphene Oxide Data Set
C         22.88503        69.79468        -0.81346
C         22.96411        71.22940        -0.54813
C         21.81124        71.99146        -0.81525
C         23.00232        74.07775        -0.55667
C         21.81653        73.39342        -0.76102
C         25.30000        65.48382        -0.29824
C         25.24358        66.90468        -0.23806
C         24.01236        67.50819        -0.53189
C         25.53378        69.90296         0.33887
C         23.69834        68.86707        -0.20774
C         25.45234        71.27345        -0.02510
C         24.18769        71.92850        -0.24760
C         25.45052        74.05731        -0.35184
C         24.21673        73.36032        -0.36275
C         27.74671        61.28326         0.25417
C         27.74282        62.59701        -0.18045
C         26.55647        63.38716        -0.11433
C         27.69410        65.53906        -0.89401
C         26.50146        64.75773        -0.37967
C         27.81669        66.87163        -0.16731
C         26.53362        67.61443         0.12371
C         27.88990        69.78075        -0.09982
C         26.65567        69.10632         0.13251
C         27.90755        71.21268        -0.17588
C         26.68447        71.95013        -0.19436
C         27.92595        74.05939        -0.44960
C         26.68950        73.38247        -0.34320
C         30.24084        56.99951         1.35731
C         30.16439        58.49307         1.08623
C         28.98178        59.08519         0.75593
C         30.28788        61.14653        -0.07867
C         28.93085        60.43285         0.15568
C         30.29707        62.59445        -0.32799
C         28.99947        63.23591        -0.67393
C         30.28146        65.47906        -0.92357
C         28.98100        64.72127        -0.94528
C         30.27609        66.91399        -0.54457
C         29.11110        67.60947        -0.28636
C         30.33527        69.77481        -0.17357
C         29.12691        69.05625        -0.14760
C         30.36885        71.19931        -0.28761
C         29.14491        71.91426        -0.30821
C         30.38594        74.03031        -0.54577
C         29.15218        73.35385        -0.43525
C         32.77126        52.85338         0.09111
C         32.76232        54.35465        -0.05169
C         31.51480        54.98666         0.54225
C         32.69371        57.03357         0.19539
C         31.45231        56.32424         0.69661
C         32.55476        58.79273         1.82282
C         31.38893        59.28279         1.15729
C         32.69847        61.27443         0.54530
C         31.47843        60.53547         0.52830
C         32.72620        62.62219         0.08069
C         31.50043        63.27717        -0.32404
C         32.83235        65.42864        -0.49277
C         31.56255        64.70531        -0.70684
C         32.85547        66.86621        -0.56921
C         31.57525        67.54805        -0.24107
C         32.89174        69.77584        -0.06840
C         31.59152        69.04046         0.01509
C         32.86379        71.21615        -0.37205
C         31.62056        71.90275        -0.39500
C         32.85498        74.01939        -0.61450
C         31.61890        73.33448        -0.53075
C         35.28871        48.61472        -0.21787
C         35.20427        50.01584         0.00849
C         33.98820        50.71054         0.01351
C         35.24450        52.91019         0.07460
C         33.93965        52.14154         0.12425
C         35.15770        54.28483         0.70368
C         34.00765        55.01257         0.53771
C         35.04458        57.12311         1.31020
C         33.97477        56.45437         0.76329
C         35.03708        58.54018         1.91335
C         33.82031        59.34656         1.54833
C         35.16314        61.34006         0.93525
C         33.90443        60.63309         0.97191
C         35.16718        62.68329         0.47391
C         33.96772        63.31699         0.07226
C         35.27263        65.35574        -0.63740
C         33.99896        64.71881        -0.27950
C         35.26818        66.81671        -1.07791
C         34.04760        67.55816        -0.71396
C         35.32650        69.76121        -0.86411
C         34.15764        68.99991        -0.40313
C         35.32670        71.16306        -0.74146
C         34.08723        71.89069        -0.55816
C         35.31833        74.03012        -0.68046
C         34.08495        73.33119        -0.63294
C         37.87391        44.48615        -1.10435
C         37.79574        45.83148        -0.71101
C         36.56839        46.52358        -0.58192
C         37.74319        48.59025         0.08362
C         36.50962        47.89515        -0.23559
C         37.64312        49.95940         0.62224
C         36.41640        50.75307         0.37236
C         37.60124        52.79406         1.21467
C         36.41543        52.10183         0.56451
C         37.58161        54.29743         1.13411
C         36.37920        54.95135         1.11363
C         37.56374        57.09968         1.89580
C         36.28707        56.35801         1.57908
C         37.53123        58.57992         1.86095
C         36.35047        59.26790         1.68221
C         37.61586        61.37062         1.35680
C         36.36176        60.68488         1.37261
C         37.64623        62.82042         1.07553
C         36.40155        63.49872         0.58635
C         37.71364        65.52185        -0.11763
C         36.53468        64.79028        -0.13793
C         37.78969        66.90530        -0.53185
C         36.62553        67.50212        -1.32660
C         37.84468        69.79682        -1.13005
C         36.53036        69.03899        -1.28277
C         37.79559        71.23152        -0.80788
C         36.56519        71.90437        -0.78803
C         37.77905        74.05021        -0.63623
C         36.55301        73.34932        -0.69299
C         40.62433        40.72381        -3.04565
C         40.31103        42.09707        -2.78796
C         39.17002        42.57707        -2.08157
C         40.20759        44.80643        -1.79937
C         39.08324        43.91962        -1.62103
C         40.36088        46.02658        -0.99034
C         39.05007        46.56652        -0.42802
C         40.23208        48.69390         0.16045
C         38.98292        47.99810        -0.08343
C         40.20230        50.02956         0.65063
C         38.91164        50.70426         0.86991
C         40.14881        52.86137         1.25869
C         38.91065        52.20394         0.69654
C         40.13477        54.26231         1.41705
C         38.89106        55.05133         1.05638
C         40.06278        57.13011         1.78014
C         38.86821        56.43424         1.65968
C         40.08628        58.56546         1.92164
C         38.80685        59.31897         2.18054
C         40.06845        61.42778         1.65308
C         38.82207        60.72130         1.63701
C         40.08302        62.84185         1.29531
C         38.95001        63.48492         0.88252
C         40.17612        65.68399         0.48567
C         39.02183        64.78840         0.11336
C         40.20972        66.99181         0.05245
C         38.99502        67.62757        -0.46732
C         40.24036        69.77473        -0.60686
C         39.05589        69.03649        -0.77114
C         40.24915        71.21479        -0.71861
C         39.02849        71.93226        -0.71015
C         40.25060        74.06235        -0.58755
C         39.02192        73.37486        -0.63740
C         43.12351        36.54960        -3.09734
C         43.12893        37.96336        -3.12874
C         41.93650        38.71772        -3.25814
C         43.20609        40.81494        -3.30745
C         41.90583        40.13480        -3.27789
C         43.29813        42.25008        -3.34911
C         41.19727        43.11067        -3.22410
C         43.12795        45.23558        -1.99890
C         41.14893        44.40908        -2.74594
C         42.89127        46.25854        -1.11814
C         41.55612        46.99881        -1.16829
C         42.66227        48.64018         0.44282
C         41.48978        48.10601        -0.13551
C         42.56405        49.89614         1.19559
C         41.35404        50.70598         1.04749
C         42.57919        52.79593         1.63662
C         41.33886        52.10878         1.39138
C         42.57794        54.22960         1.66161
C         41.34246        54.96048         1.60354
C         42.52687        57.11675         1.74683
C         41.33590        56.41619         1.68747
C         42.55088        58.56227         1.82859
C         41.28035        59.28538         1.88448
C         42.56251        61.47405         2.13117
C         41.26802        60.73091         1.86304
C         42.59578        62.89946         1.64002
C         41.34332        63.60292         1.46044
C         42.68488        65.73022         0.92265
C         41.36678        65.08057         1.11886
C         42.68155        67.09310         0.42644
C         41.46518        67.73420         0.07775
C         42.70658        69.80416        -0.46015
C         41.47757        69.10087        -0.31141
C         42.69957        71.20691        -0.79518
C         41.49117        71.92428        -0.77790
C         42.70157        74.08713        -0.61334
C         41.49268        73.38166        -0.70042
C         45.51278        33.68784        -2.72651
C         44.32196        34.39448        -2.89794
C         45.56579        36.51156        -2.76927
C         44.31933        35.81563        -2.92496
C         45.59309        37.92814        -2.79167
C         44.37622        38.65845        -2.97648
C         45.66440        40.78229        -3.00494
C         44.38359        40.07255        -3.08552
C         45.60761        42.29881        -2.68039
C         44.31522        42.98947        -2.72663
C         45.33161        44.58680        -0.87517
C         44.18173        44.20782        -1.85295
C         45.15408        45.91950        -0.19543
C         43.97474        46.68042        -0.26052
C         45.11525        48.55583         0.94259
C         43.91576        47.95572         0.40532
C         45.14146        49.94091         1.27948
C         43.88417        50.63218         1.56802
C         45.03729        52.81166         1.55113
C         43.82007        52.10304         1.63539
C         45.04108        54.24683         1.54365
C         43.81461        54.92556         1.62239
C         45.05678        57.06454         1.92387
C         43.80878        56.41160         1.37947
C         45.04936        58.55661         2.02353
C         43.75756        59.24241         1.81358
C         45.08616        61.39775         1.54498
C         43.77450        60.70600         1.63958
C         45.16419        62.87680         1.79485
C         43.82941        63.67354         1.77349
C         45.13812        65.79639         1.22498
C         43.84373        65.08294         1.30608
C         45.16448        67.13946         0.58744
C         43.91731        67.79073         0.26642
C         45.20704        69.74420        -0.58464
C         43.92224        69.10449        -0.25408
C         45.25169        71.20237        -1.00821
C         43.94138        71.92090        -1.11552
C         45.26596        74.10570        -0.76732
C         43.95882        73.46068        -0.97771
C         46.72895        34.35270        -2.57630
C         48.00851        36.46510        -2.44496
C         46.78582        35.77409        -2.59290
C         48.05937        37.88037        -2.45293
C         46.83817        38.61634        -2.61946
C         48.08427        40.72597        -2.44651
C         46.88235        40.03236        -2.63605
C         48.06968        42.20276        -2.32089
C         46.77179        42.86453        -1.98277
C         47.95694        44.52321        -0.66418
C         46.68944        43.94772        -1.13938
C         47.98443        45.44942         0.37612
C         46.10384        46.41059         0.74232
C         47.53718        48.15986         1.91188
C         46.28245        47.73873         1.10535
C         47.60327        49.92828         1.89613
C         46.37673        50.65113         1.35520
C         47.34868        52.90612         0.90839
C         46.26873        52.11015         1.30640
C         47.52258        54.28145         1.20984
C         46.30429        54.98251         1.47592
C         47.56971        57.08232         1.70388
C         46.33317        56.36978         1.65986
C         47.56290        58.50235         1.83258
C         46.34037        59.25907         1.83667
C         47.57371        61.30384         1.05283
C         46.35025        60.63117         1.62082
C         47.58805        62.81440         1.17885
C         46.43177        63.52879         1.40284
C         47.65350        65.60148         0.70720
C         46.43110        65.00613         1.32111
C         47.64888        67.04662         0.37865
C         46.37646        67.79174         0.37843
C         47.65718        69.83155        -0.19271
C         46.44486        69.13513        -0.10149
C         47.65545        71.25151        -0.42888
C         46.49160        71.94391        -0.72726
C         47.72345        74.09689        -0.75085
C         46.46194        73.40801        -0.72834
C         49.27775        38.59312        -2.31876
C         50.54140        40.69541        -2.02780
C         49.31298        40.00147        -2.28751
C         50.58818        42.06616        -1.76100
C         49.35681        42.87863        -1.92299
C         50.40983        44.68809        -0.57329
C         49.24856        44.10849        -1.11429
C         50.33641        45.88168         0.22150
C         49.05124        46.33897         0.64357
C         50.08142        47.92924         2.04807
C         48.87625        47.47747         1.50068
C         50.09574        50.05855         2.39449
C         48.99183        50.54182         1.71009
C         50.18642        52.71754         1.58283
C         49.20016        51.83134         1.14418
C         50.10756        54.18261         1.43606
C         48.81253        54.93618         1.31857
C         50.06056        57.04361         1.86112
C         48.79196        56.32179         1.58378
C         50.09808        58.51105         2.13669
C         48.79926        59.31522         2.17269
C         50.05504        61.30509         1.25324
C         48.87395        60.65215         1.45956
C         50.08672        62.74021         0.99629
C         48.87536        63.47739         0.99517
C         50.14642        65.58416         0.79506
C         48.93399        64.88706         0.89772
C         50.15805        67.09735         0.87822
C         48.91464        67.78905         0.37073
C         50.17039        69.85791        -0.00677
C         48.90849        69.14075         0.11253
C         50.17717        71.23834        -0.24980
C         48.90048        72.02041        -0.04305
C         50.17744        74.04443        -0.84567
C         48.93392        73.42121        -0.60869
C         51.74793        42.72167        -1.29408
C         52.85404        44.65932        -0.26184
C         51.70170        44.03521        -0.75589
C         52.81305        45.93083         0.39113
C         51.51383        46.53786         0.68669
C         52.62310        48.34196         2.15390
C         51.38450        47.61939         1.57787
C         52.59272        49.89913         2.22805
C         51.38665        50.65156         2.23769
C         52.60552        52.76846         2.12419
C         51.39131        52.06971         2.03663
C         52.54175        54.25981         2.23194
C         51.29127        54.86882         1.62256
C         52.61443        57.07176         1.53705
C         51.31806        56.34260         1.47403
C         52.65334        58.51944         1.78713
C         51.40088        59.31870         2.10736
C         52.60023        61.34024         1.31563
C         51.34100        60.51358         1.15012
C         52.56556        62.72318         1.13296
C         51.33116        63.43927         0.94799
C         52.62416        65.58384         0.69111
C         51.36054        64.86800         0.83051
C         52.61930        67.00496         0.36709
C         51.41390        67.72779         0.33694
C         52.62014        69.78471        -0.27387
C         51.39770        69.11317         0.02184
C         52.61267        71.18104        -0.56920
C         51.39105        71.91414        -0.52969
C         52.63137        73.96446        -1.12178
C         51.40074        73.33096        -0.81692
C         53.94944        46.56112         0.85364
C         55.10513        48.57124         1.83013
C         53.84261        47.99577         1.26691
C         55.09249        49.92212         2.14557
C         53.80519        50.61809         2.19110
C         55.06022        52.78407         2.19039
C         53.81906        52.05632         2.21496
C         55.06739        54.20464         2.00977
C         53.84856        54.93689         1.88842
C         55.10840        57.02134         1.58671
C         53.87780        56.31448         1.68412
C         55.12010        58.47338         1.54583
C         53.85215        59.20286         1.65759
C         55.06421        61.36442         1.41889
C         53.82725        60.65157         1.56157
C         55.06766        62.71700         1.16174
C         53.81902        63.51937         1.40367
C         55.09073        65.59518         0.66301
C         53.82615        64.91079         0.81804
C         55.10318        67.01303         0.33268
C         53.85248        67.68488         0.13069
C         55.06491        69.73040        -0.57806
C         53.84895        69.06636        -0.22495
C         55.03153        71.08523        -0.96956
C         53.83321        71.83570        -0.90592
C         55.08249        73.90165        -1.47908
C         53.84027        73.25147        -1.18696
C         56.29530        50.65596         2.30627
C         57.52813        52.77740         2.22125
C         56.30657        52.06919         2.26351
C         57.56877        54.18612         2.05032
C         56.30653        54.90792         1.88563
C         57.62756        56.97084         1.30661
C         56.31847        56.29342         1.64811
C         57.60516        58.47513         1.47587
C         56.33756        59.15312         1.54222
C         57.57099        61.23789         1.02742
C         56.35648        60.64794         1.74989
C         57.57627        62.73600         0.97290
C         56.27940        63.38336         0.56785
C         57.56498        65.56140         0.75292
C         56.27733        64.87631         0.70953
C         57.57073        67.08002         0.53709
C         56.30980        67.70360         0.12922
C         57.51962        69.63242        -0.85692
C         56.32609        69.02486        -0.46921
C         57.52755        70.93632        -1.54054
C         56.23373        71.71881        -1.53771
C         57.52945        73.83599        -1.80865
C         56.27317        73.19497        -1.63235
C         58.77362        54.87776         2.08087
C         60.14557        56.94064         1.56179
C         58.80858        56.37998         2.08633
C         60.08431        58.44376         1.34119
C         58.82828        59.14335         1.44550
C         60.07005        61.28868         0.86389
C         58.88745        60.65532         1.56832
C         60.03430        62.63641         0.56904
C         58.78538        63.39872         0.70637
C         59.88320        65.42522        -0.30365
C         58.79252        64.78924         0.50729
C         60.08852        66.89961         0.05241
C         58.87747        67.83046         0.30958
C         60.06337        69.68896        -0.81886
C         58.80431        68.84599        -0.83687
C         59.93247        71.19444        -0.80091
C         58.86169        71.64315        -1.80960
C         59.97136        73.88690        -1.82994
C         58.75913        73.16465        -1.80978
C         61.24681        59.11709         1.02222
C         62.44600        61.16430         0.28044
C         61.28474        60.52650         0.71616
C         62.46492        62.55502        -0.04330
C         61.22274        63.31408         0.07883
C         62.36262        65.26567        -0.91029
C         61.17871        64.64421        -0.28928
C         62.37898        66.75591        -1.14212
C         61.29074        67.56021        -0.51698
C         62.47737        69.61475        -1.29874
C         61.26445        69.01542        -0.81941
C         62.38527        71.03783        -1.66024
C         61.31943        71.90147        -0.98730
C         62.44293        73.91761        -1.88589
C         61.22739        73.25865        -1.68081
C         63.64222        63.19497        -0.45551
C         64.83674        65.27757        -1.08842
C         63.66440        64.56713        -0.83892
C         64.87275        66.69548        -1.33456
C         63.65747        67.45730        -1.34113
C         64.88176        69.49372        -2.13994
C         63.64190        68.86005        -1.52888
C         64.93277        70.99918        -1.95492
C         63.67200        71.75781        -1.97756
C         64.92863        73.85861        -1.72062
C         63.69901        73.22978        -1.81860
C         66.09155        67.39863        -1.37742
C         67.33311        69.48935        -1.65695
C         66.14826        68.80075        -1.65465
C         67.40163        70.90327        -2.16770
C         66.12035        71.66563        -1.89659
C         67.38542        73.74267        -1.55720
C         66.15828        73.11640        -1.73374
C         68.63103        71.64683        -1.72755
C         68.60209        72.98634        -1.49937
O         47.53430        65.98739        -0.70882
O         31.09921        65.09315        -2.06730
O         46.94193        45.44421         1.28525
O         48.32757        52.27064         0.15110
O         44.59327        63.37183         3.02027
O         36.80880        63.62016         2.01321
O         62.02200        65.85910        -2.24865
O         45.93743        41.78195        -4.02207
O         61.81704        72.24589         0.28256
O         37.21874        69.58470        -2.44921
O         56.68760        70.99732        -2.75449
O         41.14828        64.67829         2.51943
O         38.18055        50.12751         1.99021
O         42.26603        45.19173        -3.11806
O         48.86877        42.95234        -3.30442
O         44.98301        57.68147         3.23083
O         35.13937        65.75347        -2.05765
O         44.26851        43.67815        -0.46306
O         31.56130        68.09978         1.12956
O         51.92161        56.79141         0.21382
O         29.60723        60.42308        -1.15067
O         36.77350        56.46416         2.99787
O         42.26022        42.86013        -4.07498
O         57.59295        66.52595         1.89145
O         50.12644        57.55851         3.25913
O         24.41251        69.32697         0.92372
O         32.70123        57.75692        -0.78971
O         44.27622        61.11411         0.30831
O         43.86636        72.76241        -2.29104
O         43.08799        49.90959         2.55371
O         47.10824        50.32806         3.14772
O         27.27779        66.90793         1.18481
O         50.02431        48.86043         3.10567
O         61.19980        67.20695         0.92959
O         62.72359        71.33742        -3.03655
O         28.91778        63.76284        -2.04555
O         45.93217        65.73425         2.47819
O         45.34427        70.14496        -2.00774
O         33.80895        69.37872         0.98892
O         40.00196        45.81088         0.39984
O         59.30524        71.21158        -3.11535
H         58.53773        71.31450        -3.72243
O         51.34485        59.95696        -0.19172
H         51.20263        60.68565        -0.83124
O         43.93073        56.57313        -0.07871
H         43.12079        56.20479        -0.49163
O         32.44471        57.78825         2.72714
H         33.31757        57.72208         3.20819
O         32.79941        54.61728        -1.49493
H         32.72364        55.58853        -1.62923
O         38.76291        59.47809         3.65641
H         37.98360        60.03619         3.86819
O         53.80589        63.75929         2.86867
H         53.65036        62.89490         3.30697
O         58.82959        68.09863        -2.08567
H         58.79827        68.74677        -2.82338
O         48.79202        72.19597         1.41816
H         49.53777        72.76821         1.69843
O         60.52626        56.27371         0.35405
H         59.74960        56.31101        -0.25117
O         47.31917        47.85186         3.27145
H         47.02919        48.70595         3.70422
O         52.37977        54.54607         3.67942
H         51.60252        54.03755         3.99686
O         48.61040        59.70071         3.57399
H         48.71566        58.87789         4.10319
O         51.57172        59.86364         3.43700
H         51.27414        59.17585         4.07254
O         35.49215        53.17860        -1.34547
H         34.67904        53.61452        -1.69652
O         39.38415        64.32910        -1.25360
H         39.16417        65.05406        -1.88012
O         59.12277        68.60281         1.48654
H         59.02219        68.00524         2.25962
O         59.38424        65.39615        -1.67896
H         60.14895        65.62109        -2.26726
O         37.02502        67.15303        -2.67629
H         36.34877        67.49044        -3.29995
O         34.94183        58.30968         3.36472
H         35.67491        57.67462         3.59984
O         56.49970        60.86589         3.19096
H         55.78027        60.37369         3.64019
O         42.70102        61.51876         3.58456
H         42.06598        62.17806         3.93669
O         59.44736        71.55590         0.49841
H         60.27573        71.88384         0.96558
O         58.63878        56.81822         3.46359
H         59.27012        56.32269         4.02556
O         52.83845        47.83682         3.48159
H         52.02493        48.01521         4.00149
O         57.44202        60.77663        -0.36267
H         58.26470        61.03623        -0.83306
O         29.04612        56.34817         0.93459
H         28.96594        56.45072        -0.03610
O         53.57668        48.73354         0.01458
H         54.30557        48.53287        -0.60961
O         56.13285        63.13579        -0.88560
H         56.34699        62.17939        -1.02506
O         37.56820        52.53279         2.64372
H         36.73661        52.89912         3.00934
O         57.86451        56.69234        -0.11038
H         57.13036        57.09409        -0.62179
O         64.82660        69.24906        -3.57361
H         65.63791        69.65682        -3.95727
O         27.40343        65.90472        -2.27055
H         27.62916        65.12143        -2.82334
O         47.48380        61.06180        -0.40421
H         46.54275        61.17084        -0.66629
O         41.40376        47.66075        -2.45029
H         41.67723        47.01547        -3.14445
O         38.93733        52.47022        -0.74196
H         39.74123        52.05257        -1.11792
O         67.47171        70.77700        -3.64445
H         67.59031        71.68232        -4.00429
O         50.17067        67.37149         2.32998
H         50.28343        68.33870         2.45026
O         39.02862        55.28085        -0.40453
H         38.92843        54.39232        -0.83316
O         59.09871        60.99184         2.95800
H         58.25283        60.83204         3.44237
H         23.02809        75.17617        -0.59109
H         25.43883        75.15490        -0.43236
H         27.93649        75.15532        -0.54466
H         30.39076        75.12573        -0.64525
H         32.85451        75.11788        -0.67105
H         35.30964        75.13017        -0.67006
H         37.76541        75.14918        -0.58647
H         40.25051        75.16014        -0.51680
H         42.69538        75.14265        -0.30360
H         45.28618        75.20284        -0.68131
H         47.72686        75.17000        -0.99655
H         50.19072        75.10386        -1.14504
H         52.63291        75.04354        -1.33690
H         55.09254        74.99827        -1.57279
H         57.54049        74.93687        -1.85542
H         59.92908        74.98571        -1.91618
H         62.44016        74.97320        -2.20665
H         64.97850        74.95107        -1.59646
H         67.42514        74.83056        -1.40634
H         22.17780        69.46946        -1.59119
H         20.87767        71.46802        -1.06664
H         20.88294        73.94652        -0.93421
H         24.35118        64.92768        -0.23854
H         23.24502        66.88833        -1.02203
H         26.84361        60.86908         0.72772
H         25.63397        62.88835         0.22183
H         30.32193        56.82617         2.46397
H         28.05144        58.49710         0.79809
H         31.80632        52.32711         0.02172
H         30.66288        54.34822         0.82776
H         34.36027        48.06905        -0.44654
H         33.04419        50.15878        -0.11308
H         36.94851        43.89527        -1.17555
H         35.63176        45.98838        -0.79974
H         39.81336        40.00253        -2.85151
H         38.35755        41.88038        -1.83069
H         42.17122        36.01056        -3.21066
H         40.97932        38.17424        -3.27222
H         45.49153        32.58896        -2.70999
H         43.37211        33.85357        -3.01543
H         47.65789        33.78015        -2.44255
H         48.94001        35.89265        -2.32212
H         50.21592        38.03032        -2.20315
H         51.45957        40.09917        -1.91441
H         52.70107        42.17178        -1.26901
H         53.82964        44.16575        -0.38692
H         54.94161        46.10571         0.71088
H         56.05469        48.01777         1.76619
H         57.25292        50.11391         2.30725
H         58.47330        52.22239         2.31434
H         59.71091        54.32476         2.24876
H         60.94695        56.72499         2.31936
H         62.18455        58.54640         0.94207
H         63.37589        60.58508         0.17594
H         64.58283        62.62405        -0.47635
H         65.79888        64.74699        -1.02310
H         67.03369        66.85786        -1.19791
H         68.27090        68.97769        -1.38820
H         69.58033        71.09355        -1.67435
H         69.53131        73.51777        -1.24613
