         657
 CSIRO Nanostructure Databank - Neutral Graphene Oxide Data Set
C          5.91442        31.78178        -0.87204
C          5.90530        33.14848        -0.84614
C          8.39874        27.47788        -0.42534
C          8.33166        28.89503        -0.29388
C          7.14401        29.63386        -0.57641
C          8.26466        31.78176        -0.15315
C          7.10378        31.03717        -0.54109
C          8.29860        33.18578        -0.21437
C          7.09583        33.90891        -0.55691
C          8.31557        36.05100        -0.46544
C          7.10547        35.30180        -0.60077
C          8.33107        37.44666        -0.51975
C         10.95058        23.14796        -0.18273
C         10.70266        24.50991         0.21317
C          9.54770        25.27404        -0.41038
C         10.74940        27.45019         0.25876
C          9.55584        26.76416        -0.13751
C         10.71653        28.87973         0.33049
C          9.50672        29.57934         0.12433
C         10.71924        31.80160         0.59376
C          9.41713        31.02886         0.35564
C         10.74730        33.24176         0.24170
C          9.53224        33.92131        -0.05199
C         10.79056        36.03084        -0.35999
C          9.56189        35.32997        -0.28834
C         10.81706        37.46765        -0.60782
C          9.55021        38.19636        -0.58545
C         10.73061        40.34343        -1.00813
C          9.54456        39.58775        -0.61210
C         10.79855        41.80596        -0.86436
C         13.25338        18.94551         0.68199
C         13.31656        20.29693         0.45443
C         12.15831        21.04056         0.11109
C         13.22568        23.17135         0.79936
C         12.09156        22.45220         0.26191
C         13.22690        24.56268         0.85455
C         11.95951        25.30189         0.72868
C         13.20212        27.43910         0.68776
C         11.96886        26.75220         0.54940
C         13.20886        28.86785         0.59952
C         11.95500        29.60874         0.51074
C         13.20343        31.74376         0.63403
C         11.94573        30.99986         0.53402
C         13.22186        33.23869         0.50163
C         11.96427        33.94125         0.18226
C         13.27315        36.00201        -0.24208
C         12.01162        35.31752        -0.17097
C         13.32329        37.39001        -0.84289
C         12.01824        38.14333        -0.76413
C         13.37349        40.33236        -1.22330
C         12.04262        39.56474        -1.15256
C         13.28028        41.79887        -0.79396
C         12.00126        42.50871        -0.81617
C         13.18012        44.69751        -0.54463
C         12.00740        43.93852        -0.77551
C         13.22194        46.08343        -0.54194
C         15.88978        14.85592         0.04288
C         15.75825        16.14806         0.61043
C         14.59109        16.88233         0.48255
C         15.67936        18.92641         1.37441
C         14.38253        18.15269         1.26730
C         15.75569        20.27299         1.17018
C         14.61721        21.05830         0.54695
C         15.71189        23.17339         1.32855
C         14.41692        22.38180         1.30453
C         15.66625        24.57379         1.28537
C         14.45353        25.30007         1.03424
C         15.67546        27.46497         0.92884
C         14.44460        26.72885         0.91092
C         15.67875        28.87003         0.72164
C         14.44188        29.54625         0.58672
C         15.72808        31.75279         0.26369
C         14.44346        30.99292         0.31793
C         15.70861        33.23115         0.36758
C         14.51107        33.92158         0.26245
C         15.72186        36.06449         0.08686
C         14.47419        35.33882         0.02735
C         15.66686        37.50796        -0.01085
C         14.51743        38.19751        -0.38521
C         15.68977        40.37413        -0.33259
C         14.52658        39.62045        -0.53927
C         15.71214        41.79418        -0.46757
C         14.44532        42.49147        -0.55180
C         15.66785        44.65808        -0.82991
C         14.45095        43.96294        -0.19068
C         15.72360        46.14055        -0.53961
C         14.45546        46.82526        -0.07236
C         15.67481        48.99483        -0.47400
C         14.46988        48.29446        -0.38221
C         15.71544        50.42373        -0.43135
C         18.20014        10.46854        -0.33891
C         18.13690        11.77197         0.39004
C         17.01639        12.65548        -0.07719
C         18.24379        14.60215         0.76372
C         17.03447        14.01841         0.23538
C         18.15516        15.91331         1.42573
C         16.85901        16.67572         1.47136
C         18.16303        18.88882         1.77886
C         16.84101        18.15689         1.96261
C         18.19916        20.26617         1.67265
C         16.96757        21.02733         1.47045
C         18.18961        23.16178         1.86479
C         16.93243        22.43364         1.51668
C         18.20575        24.66698         1.82003
C         16.89242        25.36321         1.54083
C         18.14939        27.42201         1.05869
C         16.92790        26.77152         1.12386
C         18.17131        28.89863         1.07146
C         16.92227        29.63269         0.74218
C         18.21156        31.77827         0.55413
C         16.95483        30.99690         0.55876
C         18.15892        33.24751         0.67989
C         16.96053        33.94275         0.47880
C         18.17452        36.13070         0.47593
C         16.90404        35.38103         0.39008
C         18.15293        37.50723        -0.08005
C         16.90903        38.25401         0.24392
C         18.24308        40.40844        -0.21670
C         16.95032        39.73111         0.06458
C         18.20617        41.82729        -0.33171
C         16.94682        42.48918        -0.36025
C         18.22485        44.70303        -0.48905
C         16.92977        43.95792        -0.35638
C         18.16432        46.09565        -1.10962
C         16.89505        46.83391        -0.71839
C         18.14908        48.98110        -0.55438
C         16.92541        48.27166        -0.58486
C         18.15606        50.36962        -0.32219
C         16.93346        51.11571        -0.30611
C         18.18737        53.25791        -0.03640
C         16.98225        52.54154        -0.14776
C         18.20979        54.67337         0.08447
C         20.66413         6.40166        -1.56588
C         20.64612         7.75462        -1.15837
C         19.43477         8.46803        -1.03009
C         20.66935        10.46039        -0.24313
C         19.40682         9.80399        -0.54426
C         20.67644        11.81487         0.20172
C         19.45760        12.49948         0.40548
C         20.72380        14.52511         1.01149
C         19.46638        13.87596         0.74651
C         20.69434        15.98783         1.25445
C         19.42927        16.63873         1.72736
C         20.73365        18.87768         1.86942
C         19.42385        18.12758         1.96236
C         20.68521        20.30489         1.51046
C         19.48924        20.96271         1.57651
C         20.79997        23.17043         1.66951
C         19.49396        22.42590         1.79488
C         20.75707        24.66940         1.52226
C         19.45554        25.38219         1.45692
C         20.62490        27.40134         0.51080
C         19.40926        26.71421         1.11415
C         20.75369        28.87870         0.82765
C         19.48854        29.60851         1.09138
C         20.75820        31.77654         1.13953
C         19.50657        31.06419         0.74413
C         20.76005        33.26811         1.08118
C         19.43434        33.95899         0.93902
C         20.73776        36.01898         0.14883
C         19.46514        35.42376         0.65425
C         20.71073        37.45408        -0.27434
C         19.42160        38.22588        -0.34838
C         20.70417        40.38937        -0.45239
C         19.44851        39.70577        -0.28679
C         20.68970        41.79079        -0.63813
C         19.44864        42.54058        -0.54067
C         20.67471        44.65713        -1.16622
C         19.45555        43.92818        -0.66846
C         20.68035        46.12313        -0.77712
C         19.43827        46.83851        -0.78880
C         20.62589        48.93671        -0.47819
C         19.42390        48.24500        -0.60000
C         20.62412        50.42406        -0.66780
C         19.44375        51.04365         0.08104
C         20.65486        53.22338         0.01188
C         19.45026        52.54797        -0.04046
C         20.68415        54.66858         0.16926
C         19.41463        55.39087         0.21795
C         20.62310        57.48193         0.73881
C         19.41948        56.76587         0.54486
C         20.65951        58.81364         1.15069
C         23.11196         3.65062        -2.22161
C         21.90438         4.32568        -2.09095
C         23.11969         6.36611        -1.44841
C         21.87895         5.69399        -1.70101
C         23.12133         7.73590        -1.05455
C         21.89463         8.42420        -0.88510
C         23.14049        10.48331        -0.29695
C         21.89356         9.78541        -0.45709
C         23.13908        11.85608         0.04654
C         21.93040        12.50868         0.34043
C         23.23081        14.53386         1.02396
C         21.93953        13.88213         0.77580
C         23.21459        15.87249         1.72871
C         21.98433        16.69407         1.42190
C         23.26536        18.83704         1.30838
C         22.02972        18.14885         1.77819
C         23.22529        20.23843         1.02030
C         21.89922        20.96727         0.88978
C         23.17307        23.11457         0.92346
C         22.01021        22.44744         1.19225
C         23.29468        24.61192         1.18599
C         21.97755        25.35887         1.03586
C         23.12854        27.41516         0.26484
C         21.92639        26.67824         0.74085
C         23.19711        28.89196         0.42988
C         21.93818        29.56449         0.67970
C         23.27286        31.76530         0.69693
C         22.03300        31.01343         1.00685
C         23.25138        33.19458         0.59186
C         22.03772        33.95307         0.72818
C         23.22775        35.99066         0.06582
C         22.03023        35.32292         0.43739
C         23.16546        37.39088        -0.41030
C         21.97693        38.22905         0.01634
C         23.15833        40.34189        -0.61358
C         21.95532        39.66702        -0.45938
C         23.16207        41.77229        -0.72211
C         21.93142        42.49172        -0.78491
C         23.15015        44.59762        -0.68771
C         21.94613        43.91445        -0.84661
C         23.15283        46.03200        -0.21907
C         21.86069        46.76358        -0.45677
C         23.15513        48.94945        -0.50718
C         21.88229        48.21998        -0.09126
C         23.11655        50.38703        -0.46777
C         21.93730        51.08508        -0.35732
C         23.11780        53.16101         0.18664
C         21.93523        52.51699        -0.08222
C         23.11657        54.55441         0.73998
C         21.88533        55.32748         0.34051
C         23.20454        57.52322         0.67163
C         21.90121        56.79742         0.43128
C         23.14206        58.82765         1.36531
C         21.87921        59.47737         1.50260
C         22.99683        61.36991         2.55097
C         21.83632        60.76958         2.08500
C         24.32809         4.30103        -1.97899
C         25.58080         6.34763        -1.35675
C         24.35334         5.65960        -1.59502
C         25.60152         7.69359        -1.00039
C         24.36426         8.42189        -0.83838
C         25.63459        10.50392        -0.34858
C         24.37422         9.78817        -0.49802
C         25.66394        11.85866        -0.09714
C         24.39572        12.67718        -0.12803
C         25.73128        14.52013         1.21249
C         24.42435        13.92306         0.74862
C         25.67783        16.00028         1.47217
C         24.46802        16.66679         1.46706
C         25.70466        18.70760         0.79942
C         24.44986        18.09512         1.30095
C         25.62258        20.15720         0.38416
C         24.39016        20.92486         0.67174
C         25.59179        23.07348         0.41840
C         24.40290        22.37915         0.61548
C         25.59875        24.51626         0.23851
C         24.43235        25.23046         0.39952
C         25.65417        27.45358        -0.23258
C         24.37021        26.65515        -0.00163
C         25.69402        28.79958         0.56527
C         24.39660        29.57586         0.43508
C         25.67739        31.73025         0.18876
C         24.44965        31.03595         0.45711
C         25.68230        33.14024         0.08559
C         24.46078        33.87524         0.23815
C         25.68410        35.99870        -0.25401
C         24.44338        35.28299        -0.01461
C         25.68906        37.38329        -0.42462
C         24.45619        38.11299        -0.72035
C         25.72062        40.31198        -0.46914
C         24.46130        39.62615        -0.94279
C         25.67110        41.80700        -0.22643
C         24.39125        42.48712        -0.67576
C         25.64951        44.61990        -0.32195
C         24.37061        43.88194        -0.63748
C         25.64481        46.06098        -0.78667
C         24.36074        46.80826        -0.73443
C         25.64064        49.00241        -0.55255
C         24.36221        48.28591        -0.59824
C         25.65646        50.36507        -0.51922
C         24.39258        51.17714        -0.65425
C         25.66918        53.14376         0.31961
C         24.38567        52.34780         0.33755
C         25.61880        54.56217         0.63757
C         24.43964        55.26761         0.60287
C         25.51378        57.21015         1.73221
C         24.54347        56.78759         0.61581
C         25.65946        58.73681         1.80482
C         24.30654        59.42319         1.88940
C         24.22324        60.69409         2.47250
C         26.83695         8.39244        -0.80351
C         28.12402        10.43129        -0.39222
C         26.87091         9.74168        -0.50558
C         28.19474        11.78600        -0.17357
C         26.95271        12.64483        -0.14211
C         28.41236        14.39920         0.94605
C         27.03968        13.78677         0.88413
C         28.71369        15.50896         1.72581
C         26.86441        16.81103         1.68823
C         28.24940        18.91233         1.06561
C         27.00879        18.11352         1.22925
C         28.18849        20.18003         0.50232
C         26.91339        20.88872         0.07472
C         28.16697        23.05691         0.31395
C         26.88094        22.34053         0.49812
C         28.11518        24.44177        -0.29481
C         26.85171        25.23402        -0.01706
C         28.15279        27.34848         0.06242
C         26.87979        26.59894         0.00313
C         28.18495        28.84747         0.09027
C         26.91649        29.60120         0.14710
C         28.12594        31.70412        -0.35474
C         26.91180        30.97724        -0.00200
C         28.10875        33.08224        -0.47053
C         26.91092        33.85607        -0.20462
C         28.17252        35.99377        -0.52675
C         26.92845        35.25768        -0.28382
C         28.17578        37.41961        -0.51161
C         26.93348        38.14625        -0.06655
C         28.19313        40.34093        -0.44210
C         26.88827        39.62268        -0.38763
C         28.17856        41.79950        -0.77661
C         26.89443        42.54082        -0.74739
C         28.05743        44.68660        -1.25987
C         26.87094        43.89329        -0.83078
C         28.10753        46.14423        -0.94679
C         26.93195        46.79651        -0.71585
C         28.18313        48.95330        -0.75325
C         26.92340        48.23147        -0.24245
C         28.17399        50.38056        -0.28327
C         26.93599        51.17216        -0.59751
C         28.12789        53.16782         0.43900
C         26.86716        52.51021         0.10868
C         28.10566        54.51609         0.84459
C         26.88612        55.25003         0.94543
C         26.83931        56.51314         1.50524
C         29.45239        12.46788        -0.13387
C         30.95848        14.37738         0.39324
C         29.55383        13.76153         0.33430
C         30.99694        15.82368         0.84646
C         29.92152        16.22972         1.63773
C         30.74075        18.86127         0.62350
C         29.62766        18.41665         1.29658
C         30.61521        20.06507        -0.29492
C         29.41242        20.90098         0.13490
C         30.65007        23.02991        -0.34838
C         29.39507        22.26123         0.02098
C         30.61572        24.46974         0.13853
C         29.37593        25.19437        -0.02082
C         30.68375        27.37522        -0.33949
C         29.39212        26.61565        -0.31044
C         30.64122        28.85292        -0.29152
C         29.43662        29.52515        -0.29253
C         30.67464        31.65140        -0.65477
C         29.35257        30.92985        -0.81949
C         30.66928        33.09502        -0.95820
C         29.31930        33.82229        -0.90905
C         30.64170        35.96406        -1.01983
C         29.34976        35.27894        -0.80285
C         30.64508        37.45898        -0.97062
C         29.35794        38.16831        -0.75327
C         30.69617        40.21005        -1.22404
C         29.39144        39.55755        -0.78369
C         30.68941        41.73429        -1.36017
C         29.37425        42.45547        -1.39143
C         30.62859        44.66115        -1.37491
C         29.34015        43.95185        -1.46973
C         30.60255        46.02965        -1.14484
C         29.41518        46.80986        -0.84915
C         30.59631        48.84889         0.12069
C         29.46230        48.16505        -0.48442
C         30.49658        50.19514         0.44407
C         29.31986        50.99891         0.19721
C         29.30971        52.40205         0.48851
C         32.06339        16.68997         0.55019
C         33.19294        18.81790         0.28610
C         31.99809        18.11015         0.56213
C         33.21884        20.20276         0.04890
C         31.96881        20.90406        -0.47113
C         33.17377        23.09008        -0.07077
C         31.89432        22.30020         0.19558
C         33.17333        24.45292        -0.15642
C         31.94141        25.22894         0.09815
C         33.14993        27.38678        -0.23411
C         31.95011        26.67220        -0.14377
C         33.12326        28.83085        -0.34454
C         31.90032        29.53893        -0.40909
C         33.15276        31.69082        -0.87077
C         31.86542        30.97013        -0.53541
C         33.12533        33.10894        -0.27280
C         31.89524        33.87728        -0.69429
C         33.13628        36.00109        -0.43002
C         31.90751        35.24677        -0.70447
C         33.12314        37.44439        -0.28975
C         31.84588        38.15301        -0.40120
C         33.13030        40.37222        -0.33541
C         31.84978        39.65344        -0.41432
C         33.02746        41.88655        -0.20473
C         31.94935        42.51629        -1.13195
C         33.61033        44.93191        -0.09557
C         31.85758        43.88800        -1.29745
C         33.34657        46.14628         0.50517
C         32.32091        47.03921         0.00451
C         31.77751        48.13197         0.62154
C         34.40850        20.94070         0.08871
C         35.64440        23.07825        -0.05180
C         34.44142        22.35757        -0.07144
C         35.68548        24.50209        -0.14875
C         34.41756        25.21626        -0.56166
C         35.58735        27.38936         0.00402
C         34.40089        26.68358        -0.19078
C         35.54829        28.82351         0.04693
C         34.37342        29.53800        -0.25547
C         35.60148        31.67472        -0.27517
C         34.41193        30.97078        -0.41571
C         35.66759        33.12920        -0.59139
C         34.38299        33.88013        -0.61556
C         35.58991        36.01339        -0.07552
C         34.35927        35.33651        -0.36664
C         35.51136        37.44246         0.41699
C         34.27343        38.17926        -0.04882
C         35.54352        40.33645         0.10977
C         34.27167        39.63442        -0.06807
C         35.54596        41.72370         0.15789
C         34.39502        42.55827        -0.02026
C         34.54346        43.90427         0.29396
C         36.85079        25.23329         0.00493
C         38.06381        27.36598         0.17374
C         36.86993        26.67867         0.06058
C         38.11804        28.80358         0.47755
C         36.74949        29.57610         0.40936
C         37.99541        31.71382         0.38220
C         36.80426        31.01892         0.16743
C         37.93147        33.21838         0.54970
C         36.97774        33.88659        -0.45055
C         38.03123        36.06723         0.23028
C         36.80329        35.35002        -0.05350
C         38.01813        37.46248         0.27914
C         36.80094        38.20474         0.22930
C         36.76538        39.58967         0.20283
C         39.30575        29.62499         0.30586
C         40.47202        31.79785         0.48650
C         39.24916        31.01135         0.44156
C         40.47603        33.16194         0.51779
C         39.26296        33.93696         0.46785
C         39.25811        35.30860         0.35744
O         35.03258        33.49101        -1.88340
O         17.22088        15.79479         2.57643
O         31.47966        38.93158         0.80406
O         22.60861        57.50758        -0.67524
O         31.80123        46.73390        -1.27162
O         11.23576        39.85312        -2.34084
O         15.03531        31.31727        -0.98733
O         18.57110        37.70816        -1.45582
O         18.85994        36.15035         1.78277
O         21.03610        24.02957         2.83356
O         21.57412        18.61869         3.07345
O         28.51608        44.38280        -2.62449
O         30.77781        36.79472        -2.24960
O         17.56257        44.57360         0.81921
O         29.93518        33.39418        -2.19540
O         29.96168        41.97613        -2.63829
O         27.64791        22.80163         1.66399
O         10.90806        24.80477         1.61762
O         18.80630        29.34623         2.35366
O         37.34158        29.16173         1.67206
O         18.82768        22.66547         3.08581
O         27.78130        16.16579         2.52260
O         32.21207        21.07525        -1.84369
O         24.87889        46.31174        -2.01722
O         20.76301        36.40878        -1.27824
O         31.32164        24.80201         1.39201
O         30.00290        26.92800        -1.61269
O         26.40018        13.61806         2.17560
O         23.42045        26.92662        -1.12697
O         13.24730        32.58552         1.83880
O         17.42764        25.22790         2.91716
O         19.44302        17.17177         3.08158
O         25.64588        41.99635         1.19470
O         20.04965        33.75428         2.27191
O         33.01742        44.65908        -1.33397
O         29.88877        17.45632         2.31593
O         28.49339        41.34666         0.60635
O         21.38614        16.61790         0.08837
O          9.83315        31.45279         1.69976
O         25.48967        19.07828        -0.61648
O         28.36354        28.03361         1.35835
O         19.10317        31.36877        -0.62160
O         16.93422        39.11107         1.42278
O         23.62026        37.50063        -1.78270
O         21.42368        31.28648         2.33031
O         14.44420        46.75320         1.40419
H         14.48833        45.78747         1.63684
O         30.71766        23.15218        -1.78730
H         31.23634        22.34812        -2.12513
O         37.36023        33.46057         1.86503
H         37.90289        32.98401         2.52747
O         35.34491        37.32446         1.87864
H         35.28900        38.23433         2.24163
O         25.79406        28.49346         1.97591
H         26.73672        28.25021         2.16072
O         28.04992        48.99492        -2.22084
H         28.94962        48.98615        -2.61173
O         24.56058        39.81195        -2.39664
H         24.02189        39.09450        -2.80694
O         26.99598        38.10766         1.41517
H         27.11217        39.02674         1.74339
O         13.96913        17.78195         2.62114
H         14.76720        17.82968         3.20566
O         24.33819        51.71523        -2.00298
H         25.27406        51.86349        -2.29625
O         14.60087        44.04129         1.25871
H         15.48999        43.69996         1.50033
O         30.97998        39.69353        -2.55427
H         30.46178        40.23737        -3.19309
O         20.56934        44.66696        -2.65060
H         20.74792        43.75495        -2.96760
O         20.36451        50.68166        -2.08282
H         21.19180        50.51544        -2.58288
O         37.63452        33.85570        -1.73592
H         36.93883        34.00218        -2.41578
O         33.13749        31.74689        -2.31206
H         33.91194        32.28766        -2.60226
O         13.54571        37.17254        -2.28390
H         12.70447        36.85306        -2.67342
O         23.32881        45.95916         1.23974
H         24.16225        45.42958         1.41535
O         23.15348        15.63115         3.16104
H         23.96424        15.14894         3.42914
O         27.03155        48.18352         1.20444
H         26.30086        47.63326         1.55725
O         21.58138        20.89385        -0.55635
H         22.41649        21.02257        -1.05656
O         14.11894        22.00886         2.67667
H         14.05755        22.82654         3.21354
O         18.09302        45.88854        -2.55751
H         18.96509        45.50473        -2.84518
O         17.83982        11.43725         1.81770
H         17.75923        12.28748         2.30256
O         21.90759        48.27022         1.38555
H         22.44278        47.49371         1.69014
O         26.96845        13.37554        -1.43207
H         27.18889        12.72706        -2.13505
O         26.98606        20.99742        -1.37657
H         26.78639        20.10418        -1.73912
O         30.29449        19.53926        -1.59745
H         30.97013        19.97149        -2.20238
O         20.38308        27.31881        -0.93776
H         21.24917        27.41344        -1.39385
O         28.10792        24.22965        -1.74479
H         28.97821        23.82549        -2.00372
O         16.60778        18.10356         3.39902
H         17.24146        17.43500         3.75718
O         15.00013        21.36453        -0.81946
H         15.87382        21.80893        -0.79678
O         27.05797        51.52484        -2.03850
H         27.30973        50.67799        -2.49256
O         13.75151        40.37309        -2.63002
H         12.91069        40.41837        -3.14227
O         15.57535        44.49224        -2.26286
H         16.33698        44.97731        -2.66746
O          9.55093        25.05603        -1.83410
H         10.21825        25.64480        -2.24212
O         22.99907        54.39214         2.23230
H         22.13279        53.96069         2.40604
O         29.17025        30.77726        -2.27060
H         29.37260        31.65751        -2.67519
O         34.41618        25.21561        -2.03219
H         34.28635        24.28928        -2.32963
O         26.39180        59.21890         0.67398
H         26.06083        58.73120        -0.11939
O         24.97673        56.78066         3.00483
H         24.69403        55.84227         2.91982
O         24.32007        51.78508         1.68311
H         24.11336        52.52759         2.29512
O         19.64068        50.74294         1.49239
H         18.83568        51.01613         1.97970
O         23.67962        24.75605         2.58579
H         22.89457        24.48115         3.12183
O         31.61269        14.21960        -0.86743
H         31.17875        14.80766        -1.51888
O         32.42982        42.06673         1.13357
H         31.82293        41.31626         1.31811
O         31.74812        22.10016         1.60909
H         31.67491        22.99014         2.02919
O         24.28543        13.19662        -1.50490
H         25.16633        13.58897        -1.72884
O         22.09319        38.29698         1.46946
H         21.45046        38.95190         1.81466
O         33.08429        32.94130         1.16794
H         33.13580        33.82568         1.58839
O         25.73475        44.65083         1.14054
H         25.73875        43.66350         1.40820
O         25.74583        27.81731        -1.62795
H         24.90149        27.54817        -2.06143
O         25.16639        57.17803        -0.63957
H         24.43701        57.22392        -1.30251
H          5.00199        31.22681        -1.13471
H          4.98313        33.69710        -1.08851
H          7.50647        26.93369        -0.76906
H          6.23883        29.08184        -0.87044
H          6.16907        35.84300        -0.80455
H          7.37789        37.99181        -0.59205
H         10.25736        22.66686        -0.88792
H          8.58976        24.83544        -0.02772
H          8.61093        40.13436        -0.41044
H          9.85059        42.35992        -0.78853
H         12.28035        18.43466         0.60385
H         11.24193        20.49883        -0.16994
H         11.05266        44.46748        -0.92126
H         12.31080        46.65752        -0.77395
H         15.02130        14.43378        -0.48492
H         13.77129        16.49049        -0.13887
H         13.52556        48.85534        -0.30251
H         14.76865        50.98275        -0.39541
H         17.25463         9.96282        -0.58710
H         16.09879        12.19758        -0.47517
H         16.03269        53.09759        -0.14601
H         17.25556        55.22036         0.12013
H         19.71334         5.88885        -1.77501
H         18.48500         7.96195        -1.25948
H         18.45991        57.28162         0.70138
H         19.71174        59.35286         1.30153
H         23.11483         2.59322        -2.52123
H         20.95537         3.80621        -2.28625
H         22.95449        62.37145         3.00115
H         20.86876        61.28346         2.17780
H         25.27529         3.75402        -2.08983
H         26.52946         5.80247        -1.47289
H         26.25007        58.99830         2.72113
H         25.13543        61.16893         2.86077
H         27.78162         7.84216        -0.92858
H         29.05381         9.85021        -0.48838
H         29.04613        55.00676         1.13794
H         27.76257        56.98664         1.87272
H         30.36145        11.93304        -0.44556
H         31.55489        13.76656         1.12989
H         31.34448        50.67809         0.95209
H         30.24575        52.88208         0.81111
H         32.98202        16.23944         0.14097
H         34.14431        18.26013         0.30139
H         33.82472        46.38852         1.46436
H         32.23208        48.51097         1.54894
H         35.35093        20.42332         0.33488
H         36.59181        22.53238         0.08284
H         36.50895        42.23299         0.32236
H         35.48446        44.21830         0.77651
H         37.80025        24.70204         0.17890
H         39.01389        26.81545         0.09126
H         38.97120        38.01060         0.34143
H         37.71172        40.15309         0.22246
H         40.26650        29.13715         0.08229
H         41.42732        31.25244         0.49477
H         41.43494        33.70234         0.53491
H         40.21150        35.86031         0.37254
