         429
 CSIRO Nanostructure Databank - Neutral Graphene Oxide Data Set
C          1.18909         1.98766        -1.05429
C          1.17654         3.39395        -1.09855
C          2.38606         1.30416        -0.96040
C          2.36878         4.12404        -1.04563
C          1.16332         6.40380        -1.01431
C          1.21146         7.75824        -0.95005
C          2.37350         5.59837        -1.23619
C          2.46081         8.49595        -0.95816
C          1.40010        10.69065        -1.49630
C          1.38556        12.11735        -1.72207
C          2.43147         9.97018        -0.92504
C          2.04493        13.02624        -0.93163
C          1.36377        15.19130        -1.81528
C          1.48307        16.56470        -1.95547
C          2.37018        14.42417        -1.19593
C          2.64351        17.21200        -1.49536
C          2.73801        18.64070        -1.58944
C          3.61968         2.01242        -0.87455
C          3.61023         3.44749        -0.92083
C          4.83436         1.30600        -0.75362
C          4.85308         4.16180        -0.71319
C          3.70378         6.34471        -1.09544
C          3.65612         7.80285        -0.90328
C          4.90514         5.60044        -0.66326
C          4.99368         8.49554        -0.95712
C          3.67357        10.60015        -0.48383
C          3.73799        12.01412        -0.13061
C          4.85402         9.91845        -0.51850
C          4.83376        12.81877        -0.33159
C          3.61505        15.02015        -0.78761
C          3.72926        16.44622        -0.95672
C          4.79991        14.27906        -0.36883
C          4.92829        17.13072        -0.60692
C          3.86751        19.29607        -1.19864
C          5.00848        18.56223        -0.72228
C          6.06782         1.98621        -0.57774
C          6.02413         3.42918        -0.46653
C          7.28964         1.29656        -0.52777
C          7.18477         4.11679         0.11001
C          6.06831         6.29437        -0.23071
C          6.12009         7.75900        -0.24042
C          7.22617         5.58335         0.17707
C          7.20854         8.42923         0.24273
C          6.04841        10.67633        -0.09999
C          6.14641        12.10310        -0.58911
C          7.24966         9.91241         0.28947
C          7.32351        12.80943         0.03945
C          6.03024        14.94571        -0.12643
C          6.08364        16.39676        -0.18318
C          7.24473        14.18883         0.18250
C          7.26188        17.10924         0.09741
C          6.18264        19.24675        -0.39982
C          7.34935        18.54576         0.01831
C          8.57032         2.07106        -0.56502
C          8.45110         3.33120         0.27647
C          9.84142         1.30031        -0.31477
C          9.70359         4.08872         0.56994
C          8.45643         6.25721         0.50118
C          8.39317         7.73310         0.87730
C          9.65433         5.56358         0.60918
C          9.69829         8.49796         0.65389
C          8.53167        10.64804         0.31144
C          8.51975        12.03713         0.29930
C          9.74619         9.87346         0.48247
C          9.76997        12.73937         0.78124
C          8.48494        14.90892         0.55668
C          8.48539        16.39292         0.49069
C          9.78937        14.20835         0.45123
C          9.75110        17.13205         0.14750
C          8.51957        19.23371         0.38964
C          9.75390        18.49760         0.84840
C         11.02189         1.94652        -0.03205
C         11.00994         3.37218         0.41997
C         12.29914         1.29406        -0.08186
C         12.22428         4.19509         0.25779
C         10.94065         6.24175         0.88681
C         10.95286         7.76612         0.90863
C         12.21172         5.54725         0.53918
C         12.24363         8.45204         0.68796
C         11.02507        10.57943         0.40987
C         11.03620        12.01061         0.40556
C         12.23127         9.85490         0.42943
C         12.22181        12.73402         0.32174
C         10.97644        14.89732         0.36379
C         11.02302        16.35271         0.33266
C         12.24667        14.17385         0.37308
C         12.19908        17.04723         0.27693
C         11.03229        19.22395         0.51785
C         12.21286        18.51710         0.28814
C         13.49911         2.01234        -0.09384
C         13.45182         3.49763        -0.13344
C         14.76101         1.37804        -0.13038
C         14.75959         4.26739         0.03965
C         13.45807         6.29206         0.63343
C         13.44706         7.74039         0.75144
C         14.67499         5.62941         0.55448
C         14.71482         8.44832         0.78072
C         13.51071        10.52670         0.17412
C         13.50066        12.05368         0.09019
C         14.76219         9.85198         0.56851
C         14.73955        12.77641         0.36274
C         13.45416        14.86107         0.34152
C         13.46808        16.31141        -0.06329
C         14.71105        14.15845         0.46530
C         14.72637        17.05270         0.27112
C         13.46496        19.17767         0.16552
C         14.70912        18.48021         0.21314
C         15.99500         2.07210        -0.01734
C         16.02023         3.50647         0.17803
C         17.22662         1.38823        -0.08040
C         17.20116         4.18347         0.41161
C         15.93388         6.25239         1.10149
C         15.92897         7.75536         0.97593
C         17.18596         5.69885         0.41402
C         17.14634         8.44439         1.09030
C         15.96849        10.55983         0.70191
C         16.05917        12.03258         0.32799
C         17.16015         9.86523         1.04281
C         17.03764        12.77331         1.24340
C         15.95229        14.91383         0.57812
C         15.93298        16.34758         0.43718
C         17.15793        14.23572         0.82786
C         17.16802        17.06108         0.44070
C         15.94135        19.17693         0.21660
C         17.17564        18.48614         0.27328
C         18.45795         2.06507         0.07792
C         18.45312         3.47901         0.39187
C         19.69576         1.39553        -0.03020
C         19.65175         4.15910         0.63677
C         18.42061         6.35492         1.01421
C         18.39332         7.68867         1.28984
C         19.58498         5.46546         1.40425
C         19.57495         8.44325         1.90099
C         18.40653        10.57565         1.26787
C         18.36439        12.04699         1.39373
C         19.61286         9.90882         1.46187
C         19.66426        12.80365         1.31768
C         18.39420        14.92375         0.77230
C         18.39671        16.34511         0.51049
C         19.64948        14.23275         0.93055
C         19.60722        17.03692         0.29599
C         18.41815        19.16393         0.16526
C         19.63968        18.46007         0.14515
C         20.91597         2.09307         0.08648
C         20.89943         3.50202         0.42934
C         22.15824         1.45687        -0.13891
C         22.11157         4.21943         0.48720
C         20.90551         6.23863         1.41658
C         20.89617         7.71086         1.67985
C         22.05066         5.72364         0.55641
C         22.14277         8.47114         1.42177
C         20.86830        10.61875         1.38300
C         20.90439        12.02318         1.14991
C         22.11629         9.90090         1.40515
C         22.11198        12.71116         0.89701
C         20.85474        14.86993         0.68600
C         20.84715        16.26422         0.21348
C         22.12359        14.16266         0.71342
C         22.14297        17.00675         0.08028
C         20.89137        19.15201         0.01562
C         22.12631        18.49153         0.02891
C         23.37088         2.17316        -0.12476
C         23.34318         3.59596         0.17835
C         24.59896         1.53476        -0.42474
C         24.52981         4.36763         0.10017
C         23.36601         6.38313         0.89185
C         23.34711         7.74496         1.28461
C         24.57427         5.72810         0.54139
C         24.62260         8.42989         1.57834
C         23.33133        10.62392         1.28604
C         23.34449        12.00608         1.00127
C         24.60641         9.93507         1.53829
C         24.59561        12.71942         0.95767
C         23.31581        14.84501         0.55302
C         23.38696        16.35064         0.64293
C         24.59184        14.07728         0.31102
C         24.60382        16.98604         0.02450
C         23.37328        19.12640        -0.11542
C         24.58891        18.37069        -0.22283
C         25.79786         2.26332        -0.57285
C         25.72648         3.73735        -0.46930
C         27.03105         1.65703        -0.83410
C         27.03189         4.51839        -0.43878
C         25.84716         6.41207         0.65336
C         25.94504         7.67574         1.48166
C         27.02865         5.83187         0.22779
C         27.12784         8.55191         1.07000
C         25.87362        10.66070         1.32638
C         25.80371        12.08311         1.18979
C         27.08870         9.99557         1.18976
C         27.03452        12.86161         1.42337
C         25.81638        14.92617         0.54331
C         25.85726        16.19828        -0.24980
C         26.97760        14.43461         1.23217
C         27.10307        17.01920        -0.03968
C         25.79851        19.02281        -0.64523
C         27.04140        18.39021        -0.55733
C         28.27120         2.37434        -0.80500
C         28.29408         3.77403        -0.50920
C         29.49973         1.70454        -0.96763
C         29.50848         4.46165        -0.30458
C         28.29681         6.51418         0.34687
C         28.28476         7.92413         0.66302
C         29.49883         5.86961         0.03020
C         29.51316         8.71136         0.29135
C         28.32892        10.76637         1.09154
C         28.31957        12.18565         1.31280
C         29.53863        10.09926         0.86376
C         29.53899        12.91162         1.28071
C         28.28644        15.23749         1.28850
C         28.26090        16.49704         0.44688
C         29.55407        14.39839         1.03841
C         29.51602        17.29314         0.36186
C         28.25465        19.01102        -0.92936
C         29.49607        18.40775        -0.63466
C         30.73283         2.38767        -0.83604
C         30.74393         3.77885        -0.47970
C         31.96103         1.71885        -1.05525
C         31.98907         4.48022        -0.34783
C         30.76487         6.57264         0.19377
C         30.77736         7.92279         0.48637
C         32.00940         5.85600         0.01499
C         32.03450         8.58516         0.97384
C         30.78383        10.78801         0.97662
C         30.74735        12.20429         1.17036
C         32.02097        10.09064         0.89341
C         32.01372        12.89249         1.46208
C         30.85299        15.17253         1.04110
C         30.83547        16.69666         0.77059
C         32.04357        14.39655         1.60550
C         32.04507        17.28477         0.08252
C         30.65338        18.79715        -1.30707
C         31.93076        18.21487        -1.04198
C         33.19158         2.40083        -0.97226
C         33.20847         3.79724        -0.61983
C         34.40996         1.73705        -1.26026
C         34.44773         4.50184        -0.57210
C         33.24778         6.57701         0.05467
C         33.28242         7.95171         0.40585
C         34.46747         5.89765        -0.26784
C         34.50280         8.67660         0.41032
C         33.27053        10.78424         1.00559
C         33.27205        12.15857         1.27144
C         34.53189        10.06524         0.79190
C         34.54161        12.86702         1.50882
C         33.39855        15.00701         1.60513
C         33.29252        16.98824         0.52638
C         34.56421        14.35088         1.39539
C         34.55924        17.24524        -0.18790
C         33.05921        18.58542        -1.76150
C         34.40700        18.11589        -1.42493
C         35.64192         2.41559        -1.21318
C         35.66394         3.81059        -0.84755
C         36.85600         1.76426        -1.54960
C         36.89623         4.50749        -0.78670
C         35.70242         6.61155        -0.27354
C         35.72737         8.02246         0.05023
C         36.89826         5.90010        -0.52595
C         36.95158         8.74161         0.09741
C         35.77409        10.72137         0.89899
C         35.83023        12.10969         1.39860
C         36.99687        10.07061         0.56951
C         37.11902        12.89001         1.28994
C         35.72959        14.97037         0.66486
C         35.68096        16.22594        -0.17902
C         37.08366        14.37560         0.96727
C         36.93032        16.68630        -0.87247
C         35.50643        18.09467        -2.37805
C         36.76686        17.58342        -2.00216
C         38.08788         2.44001        -1.50040
C         38.13212         3.81129        -1.07945
C         39.31476         1.78702        -1.84215
C         39.37503         4.46006        -0.95925
C         38.18323         6.62017        -0.60042
C         38.21217         8.08646        -0.30187
C         39.42395         5.81362        -0.29858
C         39.50325         8.69279         0.10138
C         38.28486        10.75896         0.72437
C         38.34852        12.10937         1.04625
C         39.51675         9.99014         0.56846
C         39.62948        12.85139         0.99631
C         38.33199        15.20484         0.59445
C         38.16022        16.09013        -0.62509
C         39.61350        14.35481         0.59427
C         39.32694        16.50642        -1.34954
C         37.90829        17.93947        -2.75247
C         39.18749        17.47368        -2.39964
C         40.51626         2.45224        -1.76688
C         40.57348         3.80228        -1.30867
C         41.81481         4.52048        -1.22968
C         40.70460         6.59017        -0.49943
C         40.72782         7.94011        -0.13116
C         41.87092         5.84663        -0.86626
C         41.98245         8.63869         0.08328
C         40.80280        10.61351         1.07813
C         40.85172        12.08362         0.72026
C         42.03127         9.86352         0.64316
C         41.97209        12.72439         0.27124
C         40.77516        14.82971        -0.18000
C         40.62885        15.99377        -1.05655
C         41.92340        14.06710        -0.21051
C         41.74056        16.54951        -1.70376
C         40.34290        17.96915        -3.07054
C         41.59882        17.54119        -2.69126
O         35.34718        14.90323        -0.77412
O         13.57944        11.21313        -1.12918
O         33.43429        16.38695         1.77401
O         24.57039         9.19329         2.83048
O         21.22166         6.70769         2.75241
O         39.87972        13.92544         1.95776
O         38.25551         7.57424        -1.69793
O         26.22412         4.44306        -1.66666
O          6.32124        10.48623         1.32252
O         14.13095         4.08940        -1.28304
O         31.82917        13.60351         2.80296
O         19.02785        12.52114         2.62292
O         10.39978         3.52855         1.75214
O         37.20031        13.91140         2.33553
O          2.53451        12.57493         0.31022
O          3.16408         5.95963        -2.41645
O         34.96099        18.62511        -0.09439
O         35.21443        12.30814         2.71215
O          8.41516        15.74749         1.80747
O         10.94416         6.97372         2.16622
O         30.30850        14.59787        -0.21093
O          7.54717         3.36315         1.38804
O         26.79101        13.78384         2.54258
O         21.57947        16.39216        -1.09832
O         30.14724        17.58444         1.67432
O          9.66042        17.37671        -1.28776
H         10.41536        17.95299        -1.53632
O          8.71007         2.61187        -1.94490
H          8.75261         1.84820        -2.55913
O         38.48816        16.14489         1.68653
H         38.68707        15.60184         2.48447
O         19.34206         8.50942         3.33349
H         19.92051         7.83700         3.75863
O         23.38339        16.68846         2.07466
H         24.21696        16.35196         2.46785
O         24.56159        13.71365        -1.12736
H         24.76041        14.54090        -1.64082
O          6.39196        12.04851        -2.02475
H          6.45794        12.96947        -2.35339
O         32.08238         8.28549         2.43101
H         32.87334         8.73833         2.79604
O         40.75409        10.55501         2.53883
H         40.65746         9.61448         2.79666
O         29.42541         8.91512        -1.17687
H         28.56326         9.34533        -1.36191
O         13.46706        16.27488        -1.55036
H         12.69574        15.73450        -1.82748
O         19.30099         5.03571         2.76518
H         19.80517         5.63343         3.36621
O         17.10066         6.11679        -0.97482
H         17.83860         5.70291        -1.46877
O          9.71512        12.68778         2.24936
H          8.95701        13.24014         2.53910
O         21.68717         6.17262        -0.80093
H         22.37467         5.83845        -1.41647
O         16.41504        12.76613         2.55176
H         17.13533        12.90845         3.20794
O         25.87990        15.90853        -1.72110
H         26.77947        15.58918        -1.94836
O          5.40280         8.49919        -2.36850
H          4.61215         8.69874        -2.91311
O          8.18520         7.75183         2.32061
H          9.01048         7.39610         2.72860
O          9.70109        18.31984         2.29333
H          9.15738        17.52429         2.49268
O         16.56637        12.09339        -1.02989
H         15.86968        11.72263        -1.61584
O         39.34482         5.55592         1.14914
H         40.08032         4.95047         1.38203
O         26.25702         7.21554         2.83052
H         25.94143         7.92029         3.44306
O         16.01816         5.89240         2.50463
H         15.28065         6.32737         2.98109
O         28.42591        15.71301         2.64950
H         28.00961        15.04121         3.23878
H          0.23998         1.43708        -1.11090
H          0.21458         3.91378        -1.20332
H          2.39996         0.20522        -0.93461
H          0.20236         5.89056        -0.86661
H          0.27950         8.32215        -0.80033
H          0.59391        10.12066        -1.98601
H          0.85804        12.47304        -2.62014
H          0.43953        14.68785        -2.13292
H          0.66745        17.15342        -2.39773
H          1.87481        19.19648        -1.98325
H          4.82366         0.20648        -0.78036
H          3.93601        20.39111        -1.26928
H          7.30301         0.20166        -0.63288
H          6.21135        20.34316        -0.48394
H          9.86627         0.23630        -0.59967
H          8.50794        20.33439         0.40480
H         12.32928         0.19694        -0.16527
H         11.06603        20.32044         0.60968
H         14.78941         0.27964        -0.19880
H         13.48167        20.27784         0.15300
H         17.23207         0.30546        -0.27587
H         15.94101        20.27384         0.13195
H         19.70985         0.31617        -0.24264
H         18.42359        20.25902         0.05910
H         22.17187         0.38757        -0.39795
H         20.87119        20.24910        -0.06781
H         24.61154         0.44416        -0.57047
H         23.41366        20.21625        -0.25961
H         27.06683         0.56667        -0.97856
H         25.75273        20.07742        -0.95431
H         29.50474         0.63057        -1.20514
H         28.23140        19.94545        -1.50964
H         31.95242         0.65301        -1.32742
H         30.58372        19.58034        -2.07642
H         34.38768         0.67426        -1.54338
H         32.94422        19.23989        -2.63784
H         36.82976         0.70802        -1.85625
H         35.40727        18.64190        -3.32682
H         39.28196         0.73894        -2.17334
H         37.80288        18.65196        -3.58365
H         41.45101         1.94373        -2.04420
H         42.73871         3.99951        -1.52014
H         42.84511         6.35380        -0.90454
H         42.92421         8.12500        -0.15526
H         43.00947        10.30411         0.88369
H         42.91195        12.17362         0.13038
H         42.80906        14.42941        -0.74957
H         42.75357        16.21086        -1.44977
H         40.21929        18.71672        -3.86670
H         42.49511        17.94941        -3.17829
