         404
 CSIRO Nanostructure Databank - Neutral Graphene Oxide Data Set
C          1.21725         2.02544         0.03408
C          1.25086         3.37317         0.55003
C          2.24577         1.20558        -0.36529
C          2.35460         4.15996         0.82086
C          1.11470         6.33837         1.18258
C          1.11105         7.73878         1.23927
C          2.32623         5.61870         1.00040
C          2.29290         8.46825         1.35884
C          1.09980        10.73301         1.38149
C          1.10702        12.07813         1.31154
C          2.31112         9.92444         1.63791
C          2.33509        12.89788         1.40897
C          1.20748        14.74939         0.00189
C          1.24359        15.98281        -0.54604
C          2.28178        14.36738         0.99438
C          2.40489        16.83981        -0.37095
C          2.38597        18.19710        -0.82910
C          3.62868         1.50369        -0.07472
C          3.68027         3.57001         0.78661
C          4.77220         1.26817        -0.78810
C          4.77659         4.21922         0.31115
C          3.54345         6.31400         0.97786
C          3.56065         7.72386         1.41364
C          4.72728         5.73102         0.22788
C          4.89743         8.47587         1.50362
C          3.65362        10.67402         1.64765
C          3.65972        12.17308         1.48713
C          4.90943         9.94973         1.35545
C          4.89120        12.83016         0.97730
C          3.62913        14.92245         0.55818
C          3.59519        16.27000         0.10150
C          4.85301        14.22157         0.64438
C          4.85454        17.08282         0.19249
C          3.53365        18.94791        -0.89973
C          4.81208        18.38836        -0.56672
C          6.00761         2.02035        -0.54861
C          5.93587         3.51171        -0.30365
C          7.21892         1.42295        -0.81219
C          7.20077         4.30874        -0.46580
C          6.08097         6.28634         0.65792
C          6.15668         7.70514         1.17868
C          7.31266         5.68852         0.09707
C          7.39752         8.44186         0.91649
C          6.08112        10.64621         1.11679
C          6.08853        12.08993         0.90367
C          7.37285         9.89545         1.17433
C          7.32022        12.78909         0.62444
C          6.08242        14.88677         0.19782
C          6.06576        16.23566        -0.11919
C          7.32945        14.13142         0.20484
C          7.22742        16.89606        -0.73633
C          5.98302        19.04945        -0.84969
C          7.26644        18.38456        -0.80566
C          8.49391         2.10703        -0.83210
C          8.46588         3.58792        -0.80808
C          9.70145         1.43803        -0.84077
C          9.75223         4.30556        -0.61939
C          8.51345         6.35228         0.24015
C          8.56790         7.76924         0.58958
C          9.81439         5.58522         0.18560
C          9.83361         8.50122         0.44444
C          8.66963        10.63215         1.06655
C          8.60508        12.12513         0.91983
C          9.87386         9.89044         0.61200
C          9.88499        12.84637         0.60790
C          8.56953        14.79209        -0.15774
C          8.51867        16.12026        -0.81087
C          9.81219        14.18949         0.00438
C          9.79426        16.88074        -1.03310
C          8.44305        19.07788        -0.89851
C          9.75877        18.42791        -1.06344
C         10.98282         2.12441        -0.80857
C         10.98783         3.51128        -0.65956
C         12.23701         1.41532        -0.79566
C         12.20074         4.29581        -0.86508
C         11.04320         6.39965        -0.14402
C         11.04531         7.79852         0.07445
C         12.22087         5.73071        -0.51477
C         12.28022         8.50690        -0.05979
C         11.09413        10.62541         0.39801
C         11.11040        12.04770         0.40761
C         12.30125         9.92373         0.12405
C         12.30895        12.75745         0.20917
C         11.06411        14.85298        -0.29952
C         11.07373        16.24738        -0.69468
C         12.26614        14.17723        -0.07022
C         12.24030        17.00622        -0.77525
C         11.00302        19.12969        -0.76278
C         12.23017        18.45857        -0.76773
C         13.47532         2.07336        -0.78866
C         13.50072         3.53267        -1.01584
C         14.72462         1.43098        -0.57544
C         14.74807         4.29608        -0.86236
C         13.46377         6.41776        -0.59203
C         13.49193         7.81495        -0.35536
C         14.69209         5.68320        -0.81920
C         14.76349         8.51946        -0.30633
C         13.54499        10.63479         0.07080
C         13.53668        12.04290         0.16327
C         14.78484         9.93779        -0.05444
C         14.80370        12.75846         0.31044
C         13.53282        14.84980        -0.37946
C         13.54015        16.33027        -0.75097
C         14.79019        14.27680         0.14524
C         14.77803        17.08489        -0.51780
C         13.47746        19.16258        -0.66850
C         14.73453        18.52737        -0.54900
C         15.96150         2.11794        -0.60715
C         15.99436         3.56740        -0.83419
C         17.18082         1.44470        -0.35757
C         17.20079         4.23568        -0.95148
C         15.93539         6.45013        -0.98521
C         15.95762         7.84626        -0.53620
C         17.24309         5.69458        -1.12988
C         17.25668         8.46293        -0.09697
C         16.03192        10.65240        -0.10207
C         16.06433        12.07055         0.04325
C         17.26178         9.96105        -0.25917
C         17.25989        12.80438        -0.10606
C         16.04209        14.98506        -0.10991
C         15.97755        16.39936        -0.28620
C         17.26384        14.26028        -0.08602
C         17.19370        17.17694        -0.01999
C         15.96174        19.25838        -0.50011
C         17.21138        18.62610        -0.30659
C         18.44318         2.08556        -0.44961
C         18.46743         3.48002        -0.94763
C         19.66129         1.44507        -0.21085
C         19.78522         4.21713        -1.05663
C         18.51519         6.43182        -0.88619
C         18.50236         7.76621        -0.59049
C         19.81184         5.74031        -1.27943
C         19.73752         8.53398        -0.56452
C         18.47085        10.66977        -0.36281
C         18.48116        12.10339        -0.33753
C         19.71759         9.94583        -0.47613
C         19.70459        12.81927        -0.53868
C         18.49152        14.95252        -0.21596
C         18.51831        16.40383         0.00221
C         19.70975        14.27103        -0.48800
C         19.74555        17.15912        -0.24068
C         18.45375        19.28499        -0.29953
C         19.71076        18.58994        -0.25348
C         20.92067         2.13756        -0.21808
C         20.97979         3.53480        -0.51495
C         22.11846         1.46403         0.12894
C         22.16864         4.25911        -0.27139
C         21.01262         6.41746        -0.66932
C         20.97856         7.84276        -0.58886
C         22.17987         5.71698        -0.37586
C         22.19452         8.57169        -0.45340
C         20.93776        10.68092        -0.54398
C         20.91188        12.09940        -0.65441
C         22.18729         9.98898        -0.51506
C         22.16965        12.79832        -0.94280
C         20.91082        15.01383        -0.58532
C         20.94767        16.44233        -0.42975
C         22.16375        14.33420        -0.91721
C         22.19098        17.14928        -0.46792
C         20.94798        19.27402        -0.30124
C         22.18646        18.57868        -0.35096
C         23.33504         2.15736         0.30222
C         23.32044         3.58140         0.18573
C         24.58239         1.46828         0.51499
C         24.50551         4.34871         0.58097
C         23.39693         6.44500        -0.13265
C         23.41606         7.86209        -0.26965
C         24.58869         5.77288         0.23119
C         24.63834         8.57668        -0.15220
C         23.42790        10.70561        -0.49671
C         23.44833        12.11539        -0.68674
C         24.64794         9.99768        -0.30770
C         24.65488        12.83827        -0.65779
C         23.43886        15.02511        -0.68971
C         23.43519        16.43796        -0.53873
C         24.65129        14.29662        -0.68878
C         24.67111        17.14098        -0.45709
C         23.42925        19.26298        -0.28156
C         24.66402        18.57521        -0.30559
C         25.80507         2.12787         0.65726
C         25.81470         3.59542         0.83881
C         27.05999         1.46466         0.65791
C         27.06878         4.34110         0.72568
C         25.81712         6.46152         0.32026
C         25.85046         7.87207         0.09169
C         27.05171         5.75346         0.58745
C         27.08405         8.58440         0.12081
C         25.87825        10.71035        -0.27532
C         25.88676        12.12578        -0.45771
C         27.10258         9.99968        -0.06963
C         27.13014        12.81257        -0.47385
C         25.87435        15.01127        -0.64336
C         25.90199        16.42628        -0.53082
C         27.12909        14.25437        -0.77505
C         27.15174        17.14057        -0.37719
C         25.89912        19.25451        -0.15605
C         27.13288        18.56339        -0.14683
C         28.28695         2.15061         0.77345
C         28.31375         3.62181         0.81228
C         29.51007         1.44708         0.79900
C         29.50614         4.30680         0.95913
C         28.27096         6.47893         0.60807
C         28.29780         7.86875         0.36093
C         29.51617         5.80961         1.12771
C         29.54035         8.58737         0.36259
C         28.33612        10.70938        -0.01191
C         28.34276        12.13488        -0.21842
C         29.54041         9.97335         0.20120
C         29.57290        12.87889        -0.11959
C         28.43748        15.01994        -0.65839
C         28.38846        16.46144        -0.35727
C         29.63320        14.25832        -0.27310
C         29.59586        17.12908        -0.03348
C         28.35703        19.23889         0.10307
C         29.58069        18.54984         0.18819
C         30.75606         2.09943         0.96700
C         30.76610         3.56783         1.34370
C         31.97091         1.42917         0.93098
C         32.01772         4.23870         0.81059
C         30.78128         6.49339         0.65945
C         30.79964         7.85672         0.43998
C         32.02230         5.72309         0.52311
C         32.05284         8.55646         0.20352
C         30.81980        10.68478         0.37773
C         30.81071        12.17883         0.26696
C         32.08704         9.95865         0.16389
C         32.09458        12.84816         0.03137
C         30.85527        14.98378        -0.04802
C         30.83382        16.40469         0.06213
C         32.08745        14.27954         0.01664
C         32.04257        17.08940         0.38679
C         30.80935        19.21821         0.48508
C         32.02018        18.52781         0.59328
C         33.24409         2.10760         1.07472
C         33.28027         3.53892         1.06388
C         34.43081         1.38035         1.12139
C         34.52414         4.28910         1.12282
C         33.29003         6.44949         0.42427
C         33.29578         7.82990         0.19456
C         34.55219         5.77561         0.72273
C         34.54503         8.51696         0.02537
C         33.30718        10.67681        -0.00439
C         33.27711        12.11080        -0.04169
C         34.55607         9.94828        -0.11752
C         34.52311        12.87314        -0.25041
C         33.30507        14.99447         0.20985
C         33.25286        16.37509         0.48558
C         34.56452        14.30221         0.13659
C         34.47815        17.00631         1.07940
C         33.25033        19.19943         0.86901
C         34.46150        18.51062         1.01520
C         35.74458         2.02824         1.17946
C         35.83064         3.55927         1.09165
C         36.92596         1.27956         0.77488
C         37.00990         4.18579         0.45674
C         35.80592         6.38707         0.23401
C         35.75543         7.75330        -0.06879
C         37.01274         5.58128         0.06797
C         36.98624         8.45360        -0.50254
C         35.78675        10.63390        -0.25587
C         35.79844        12.10828        -0.37398
C         37.04468         9.93897        -0.29854
C         37.07635        12.81931        -0.03974
C         35.77200        14.99027         0.27583
C         35.78030        16.37400         0.62374
C         37.08215        14.29409         0.21317
C         36.98860        17.04944         0.80658
C         35.67566        19.13808         1.31084
C         36.90622        18.41579         1.32560
C         38.09924         1.92951         0.47438
C         38.14272         3.37301         0.24402
C         39.28717         1.13478         0.25512
C         39.30023         3.92291        -0.38866
C         38.17948         6.14841        -0.50693
C         38.21495         7.63346        -0.78177
C         39.30079         5.29540        -0.81365
C         39.52496         8.39716        -0.69150
C         38.25053        10.62809        -0.29305
C         38.28688        12.12359        -0.60125
C         39.53602         9.90794        -0.35052
C         39.56034        12.86636        -0.27963
C         38.34414        15.08652         0.09990
C         38.28691        16.44613         0.49171
C         39.55380        14.30002        -0.19175
C         39.45240        17.31041         0.74012
C         38.04956        19.02763         1.82425
C         39.33226        18.47667         1.56435
C         40.41328         1.69225        -0.25116
C         40.42618         3.07626        -0.65633
C         41.52550         3.55295        -1.37630
C         40.40287         5.67280        -1.64227
C         40.64609         7.98896        -1.53579
C         41.48640         4.84160        -1.90909
C         41.76836         8.74576        -1.73831
C         40.74715        10.69522        -0.66800
C         40.76405        12.14131        -0.41524
C         41.83831        10.07795        -1.23713
C         42.00311        12.81830        -0.38286
C         40.80846        14.90620        -0.45862
C         40.73545        17.11632         0.18683
C         42.01677        14.20161        -0.47098
C         41.86390        17.85393         0.55475
C         40.47899        19.20467         1.97583
C         41.74033        18.87822         1.50342
O         13.67116        15.27084        -1.77204
O         40.44054         6.88201        -2.34938
O         19.21007         3.55706        -2.23605
O          6.24825         4.21819        -1.59451
O         14.75427        13.67843         1.46972
O         37.38051         8.07984        -1.89479
O         36.04479         2.87656         2.36114
O         16.55144         6.21413        -2.32089
O         30.78304        11.52411         1.59704
O         37.18954        13.26129         1.33007
O         12.76688         3.98997        -2.19812
O         24.96639         4.05717         1.94873
O         27.90333        14.63690        -1.97106
O          7.63281        16.19374        -1.97173
O          3.07294        12.81033         2.67658
O         34.56027         5.34860         2.14653
O          4.28169         7.97153         2.71355
O          9.83429        17.59911        -2.28743
O          8.17070        10.21326         2.38285
O         39.79927         8.85951         0.65622
O         31.89505         4.68343        -0.58577
O         22.13024        13.57921        -2.18174
O          3.79239         2.22197         1.12752
O          6.28504         6.55036         2.07493
O         40.88988        16.23404        -0.88632
O         17.82924        16.81643         1.24187
O          3.00902        10.25954         2.88271
O          9.35984        12.80305         1.98852
O         35.14050        12.61805        -1.58254
O          9.10908         4.30610        -1.93244
O          4.99774        17.48184         1.60606
H          4.73118        16.71423         2.15653
O         30.87361         3.62285         2.79489
H         30.10566         3.14913         3.17625
O         17.29764         8.23459         1.37326
H         16.60180         8.79822         1.77583
O          4.52575         6.17220        -1.14885
H          5.09359         5.58096        -1.71107
O         34.39286        16.68239         2.51832
H         35.18192        17.07491         2.95017
O         19.96851         5.95523        -2.71001
H         19.44693         5.24610        -3.15559
O         10.01653         5.10967         1.56156
H          9.93468         5.88005         2.16392
O         38.14903        12.21237        -2.05441
H         38.91670        11.76220        -2.46540
O         29.48878         6.04885         2.59065
H         28.64049         5.69167         2.93053
O          1.93770        15.10030         2.21593
H          2.39748        14.63485         2.95286
H          0.20281         1.67774        -0.21971
H          0.26591         3.86567         0.57194
H          2.00411         0.31080        -0.95899
H          0.15728         5.80186         1.21279
H          0.14102         8.25398         1.27340
H          0.14427        10.20637         1.24425
H          0.15583        12.59935         1.13129
H          0.33402        14.10057        -0.15333
H          0.42035        16.34236        -1.18158
H          1.43166        18.62133        -1.17345
H          4.75876         0.56876        -1.63807
H          3.50176        19.96146        -1.32672
H          7.22956         0.34092        -1.01598
H          5.94849        20.08183        -1.23210
H          9.70205         0.33746        -0.86386
H          8.41547        20.17886        -0.89493
H         12.21557         0.31693        -0.72742
H         10.96734        20.20806        -0.54746
H         14.73495         0.34588        -0.38938
H         13.44638        20.26245        -0.68598
H         17.15032         0.37578        -0.09609
H         15.92867        20.35137        -0.62154
H         19.65861         0.38203         0.07455
H         18.47533        20.37871        -0.41838
H         22.09284         0.37480         0.28131
H         20.95627        20.37383        -0.27647
H         24.57698         0.36889         0.46170
H         23.43010        20.35817        -0.17504
H         27.07746         0.36715         0.57590
H         25.89528        20.34486        -0.00805
H         29.49559         0.35366         0.67033
H         28.33971        20.32686         0.26672
H         31.98405         0.33972         0.77292
H         30.79426        20.30771         0.63916
H         34.40136         0.28721         1.00060
H         33.24708        20.29773         0.94699
H         36.88490         0.18039         0.75736
H         35.70488        20.22180         1.50078
H         39.25063         0.06642         0.51097
H         37.97804        20.00930         2.31455
H         41.31680         1.08980        -0.42215
H         42.38058         2.89212        -1.57380
H         42.29313         5.20949        -2.55557
H         42.56062         8.37571        -2.40102
H         42.74437        10.65413        -1.46505
H         42.94976        12.26373        -0.38883
H         42.95778        14.75020        -0.60541
H         42.82785        17.63963         0.07619
H         40.34186        20.06815         2.64161
H         42.62121        19.45617         1.81358
