         276
 CSIRO Nanostructure Databank - Neutral Graphene Oxide Data Set
C        -11.20663         0.54555        -0.46171
C        -10.02771         1.43762        -0.77441
C         -8.71524         0.71351        -0.54052
C         -7.50831         1.51880        -0.91283
C         -6.22505         0.77274        -0.89236
C         -5.09237         1.36508        -0.12253
C         -3.97414         0.43726         0.12468
C         -2.15035         1.51987         0.71168
C         -1.06729         0.78866         0.36765
C          0.22412         1.49439         0.21059
C          1.34710         0.76211         0.89475
C          2.58128         1.50525         1.35722
C          3.86291         0.72293         1.24880
C          5.17356         1.46421         0.98725
C          6.18498         0.66207         0.19388
C          7.36657         1.33075        -0.14615
C          8.56052         0.51058        -0.44614
C          9.83787         1.21904        -0.84756
C         10.82953         0.39223        -1.58223
C         -9.97078         2.79526        -0.06780
C         -8.83606         3.53378         0.00067
C         -7.54435         2.97738        -0.49304
C         -6.25384         3.67017        -0.18385
C         -5.00080         2.85651         0.09849
C         -3.71255         3.60525         0.36786
C         -2.38326         2.89512         0.12895
C         -1.15704         3.71247         0.36902
C          0.18977         3.03329         0.00310
C          1.21198         3.69282         1.02895
C          2.56509         2.98610         1.15056
C          3.75829         3.62360         0.50696
C          5.01340         2.83901         0.36200
C          6.32152         3.56310         0.25951
C          7.50388         2.74649        -0.08501
C          8.69510         3.42847        -0.52032
C          9.80163         2.67799        -0.95743
C         -8.82961         4.94082         0.62412
C         -7.54635         5.74158         0.39973
C         -6.26245         4.96473         0.61615
C         -4.98978         5.71495         0.12641
C         -3.73485         4.95846         0.52194
C         -2.50856         5.71868         1.03150
C         -1.22015         5.03487         0.61970
C          0.02245         5.84299         0.52343
C          1.32723         5.15632         0.63912
C          2.55220         5.71075         0.00940
C          3.74162         5.07357         0.17635
C          5.02773         5.86591         0.07097
C          6.32152         5.04623         0.05114
C          7.56833         5.68617        -0.45644
C          8.70541         4.86732        -0.62749
C         -7.54366         7.07532         0.20492
C         -6.28503         7.87893        -0.08686
C         -5.04481         7.17946         0.42161
C         -3.81433         7.95161         0.51139
C         -2.50913         7.23992         0.72101
C         -1.36323         7.88111        -0.02665
C         -0.11270         7.10556        -0.24472
C          1.13364         7.73040        -0.79735
C          2.43378         6.98224        -0.76042
C          3.68224         7.74988        -1.22846
C          4.99870         6.98064        -0.96598
C          6.28160         7.74671        -1.03447
C          7.54756         7.07032        -0.68761
C         -6.25756         9.32176         0.38557
C         -5.10864        10.01878         0.34847
C         -3.81714         9.34715        -0.10516
C         -2.53132        10.14080         0.24068
C         -1.26641         9.36640        -0.14479
C         -0.09534         9.94677        -0.50654
C          1.15193         9.24127        -1.05162
C          2.49105         9.84574        -0.58990
C          3.67762         9.18329        -0.71645
C          4.97924         9.85005        -0.74310
C          6.14887         9.22073        -1.03661
C        -11.12918        -0.78307        -0.28417
C         -9.86466        -1.58050        -0.00632
C         -8.60169        -0.77748        -0.30312
C         -7.41058        -1.47665        -0.81383
C         -6.20786        -0.71892        -1.10995
C         -4.84609        -1.44625        -1.15996
C         -3.70990        -0.74130        -0.50264
C         -2.36237        -1.40218        -0.40604
C         -1.12315        -0.67605         0.07100
C          0.11885        -1.48543         0.45929
C          1.08891        -0.66088         1.41059
C          2.41220        -1.44631         1.43474
C          3.72443        -0.75513         1.09251
C          4.71389        -1.48614         0.22944
C          5.80771        -0.64269        -0.48360
C          7.00982        -1.52258        -0.92918
C          8.39028        -0.91428        -0.90345
C          9.69337        -1.74597        -0.87037
C         10.76580        -0.95157        -1.60694
C         -9.83278        -2.98901        -0.56437
C         -8.71200        -3.65496        -0.92738
C         -7.45914        -2.88641        -1.19078
C         -6.10876        -3.63273        -1.37865
C         -4.83282        -2.92301        -1.04015
C         -3.66891        -3.57583        -0.72802
C         -2.29312        -2.94169        -0.49241
C         -1.57983        -3.52883         0.78133
C         -0.20590        -2.87184         1.05496
C          1.01928        -3.64809         1.44578
C          2.36167        -2.93627         1.40556
C          3.59204        -3.68620         1.03291
C          4.69644        -2.99119         0.32026
C          5.94082        -3.74372         0.00263
C          6.68497        -3.02149        -1.10873
C          8.93990        -4.10049        -0.76780
C          9.40518        -3.09444        -1.49451
C         -8.77713        -5.18092        -1.10292
C         -7.43938        -5.90675        -1.24864
C         -6.15736        -5.14136        -1.33239
C         -4.86509        -5.84994        -1.04368
C         -3.61780        -5.04589        -0.83825
C         -2.51111        -5.78895        -0.13595
C         -1.47813        -5.09188         0.70509
C         -0.25465        -5.92330         1.24471
C          1.06603        -5.14685         1.47097
C          2.40762        -5.82804         1.39753
C          3.65551        -5.03116         1.17306
C          5.02323        -5.65206         1.31771
C          6.14362        -4.99314         0.51164
C          7.50143        -5.69521         0.66348
C          8.70974        -5.23389        -0.14087
C         -7.36475        -7.35587        -0.87054
C         -6.19631        -7.98291        -0.56904
C         -4.96474        -7.15180        -0.24229
C         -3.63676        -7.99573        -0.13158
C         -2.39724        -7.23089        -0.62917
C         -1.11275        -7.92877        -0.23154
C          0.00166        -7.21425         0.45128
C          1.22334        -8.04517         0.85630
C          2.49261        -7.17236         0.69545
C          3.72745        -7.95395         1.10801
C          5.01013        -7.18228         1.27758
C          6.26430        -7.89423         0.92725
C          7.37525        -7.20420         0.56289
C         -6.10782        -9.41522        -0.26655
C         -4.93748       -10.08984        -0.26114
C         -3.68247        -9.40536        -0.76460
C         -2.36170       -10.09361        -0.45147
C         -1.13289        -9.42804        -0.28077
C          0.07014       -10.10652        -0.02469
C          1.36914        -9.34178        -0.00556
C          2.62279       -10.07971         0.41418
C          3.75596        -9.40562         0.76054
C          5.05362       -10.05667         0.85856
C          6.21465        -9.35188         0.89775
O          4.27318        -7.70336         2.43165
O         -6.84150        -3.12733        -2.50784
O         -8.43456         0.20704         0.80701
O          5.33119        -5.38059         2.80106
O         -1.42244        -0.82293        -1.37334
O         -3.95816        -5.62311        -2.13939
O          0.13435        -3.06062         2.46048
O         -6.83947         3.80830        -1.49116
O          4.05778        -2.27909        -0.81142
O          6.68801        -3.51941        -2.21888
O          1.24808         0.81599        -0.57016
O          4.13093         2.90459        -0.76877
O         -5.46300        -0.97969        -2.36985
O          1.74690        -5.68883         2.67315
O         -2.67701        -5.67778         1.31181
O          4.18141        -0.19314         2.36175
O          7.63592        -0.98756        -2.13898
O          9.60772         0.71068         0.54839
O          5.73708         6.85932        -2.19905
O         -0.06373        -7.16792        -0.99786
O          0.83781         6.03828         1.74051
O          2.66212         2.41264         2.49037
O         -1.15996         7.11401        -1.26137
O         -3.22278         0.79790         1.23558
O         -3.06372         7.99881         1.82721
O          0.44746         3.34548        -1.30268
O          6.54809         4.47952         1.39466
O          2.58762        -2.20586         2.67225
O         -6.79840        -5.68241        -2.54112
O         -6.74633         1.37281        -2.13291
O         -5.45639         1.95973         1.19093
O          1.52861         6.87461        -1.90994
O         -6.23826         7.93400        -1.56133
H         -5.42116         8.44933        -1.80563
O         -2.39663         2.65892        -1.31743
H         -1.49331         2.87175        -1.67331
O         -3.40649        -8.27539         1.26508
H         -3.09796        -7.44000         1.69688
O         -9.41884        -5.76587         0.03069
H        -10.24158        -5.27690         0.23313
O          0.85774        -1.79819        -0.73480
H          0.99462        -0.94755        -1.22396
O         10.09138        -1.94334         0.48980
H         10.22992        -1.05201         0.89050
O          0.54730        -0.53383         2.71668
H          0.92920        -1.25551         3.27063
O          1.12505         9.47190        -2.47545
H          1.70183         8.77713        -2.88011
O         -3.84231         9.20074        -1.54454
H         -3.55459        10.06303        -1.91975
O          3.55439         7.93030        -2.65753
H          4.36694         7.55242        -3.07604
O        -10.11893         1.70541        -2.19806
H         -9.32450         2.21015        -2.47650
O          1.11734        -8.48259         2.20932
H          0.99063        -7.69082         2.78395
O         -2.57092         5.58712         2.47482
H         -2.99313         6.40888         2.82301
O         -9.97421         5.66781         0.18959
H         -9.91807         5.78226        -0.78120
O          5.06740         6.61507         1.32724
H          5.42420         6.00080         2.01151
O          1.64173        -9.04540        -1.41997
H          0.85559        -8.56687        -1.77940
O          5.16766        -0.16939        -1.69018
H          4.81589        -0.95251        -2.17068
O          2.67975        -6.77662        -0.68081
H          2.56258        -7.58354        -1.24938
O         -5.25389        -6.62795         1.08454
H         -5.21198        -7.38614         1.70958
O         -1.48414        -3.33607        -1.60834
H         -1.09676        -2.50826        -1.99387
O          7.91760        -5.41596         2.03228
H          7.13971        -5.54051         2.62965
O         -6.17952         4.68064         2.02252
H         -5.62143         3.88583         2.16766
O         -4.95641         5.63066        -1.32836
H         -5.60020         6.28941        -1.70253
O         -2.63213        11.37422        -0.46810
H         -1.81506        11.89452        -0.32936
O          0.55775         3.58233         2.28951
H          0.47971         4.49160         2.66996
O         -2.42385        -3.17050         1.87785
H         -1.90863        -3.27520         2.70808
O         -0.65798        -6.40349         2.54417
H         -0.66641        -5.64704         3.16775
O          5.77386         1.74771         2.27312
H          5.58736         0.98411         2.86560
O         -3.82861        -9.39576        -2.20031
H         -3.22484        -8.70848        -2.57348
O         -9.89622        -1.81720         1.43334
H         -9.56472        -0.99209         1.85839
O          5.37028        -3.95274         2.98445
H          4.55771        -3.76761         3.51945
O         -2.33314        -7.27772        -2.06912
H         -1.53104        -6.78573        -2.35140
H         11.53835        -1.51603        -2.15086
H         11.63332         0.91825        -2.12044
H         10.64871         3.19099        -1.43713
H          9.63530         5.33984        -0.97994
H          8.48918         7.60045        -0.90213
H          7.07500         9.81337        -1.09738
H          4.98523        10.94384        -0.61278
H          2.50785        10.93028        -0.38797
H         -0.05722        11.04756        -0.58096
H         -2.50811        10.34119         1.35200
H         -5.08324        11.08125         0.63520
H         -7.19638         9.80741         0.69406
H         -8.50766         7.60035         0.10008
H         -8.93530         4.80635         1.73632
H        -10.91480         3.23180         0.29536
H        -12.20040         1.01410        -0.54092
H        -12.06654        -1.34455        -0.14023
H        -10.76524        -3.55851        -0.41082
H         -9.39074        -5.39629        -2.02864
H         -8.28892        -7.94506        -0.97569
H         -7.04686        -9.94144        -0.03123
H         -4.91346       -11.16333        -0.02079
H         -2.34193       -11.19551        -0.47090
H          0.08027       -11.20713        -0.01521
H          2.68171       -11.15854         0.19961
H          5.08424       -11.15459         0.79486
H          7.17564        -9.88660         0.86574
H          8.28195        -7.76705         0.29069
H          9.59353        -5.87489         0.04925
H          9.30603        -3.12785        -2.59367
