         244
 CSIRO Nanostructure Databank - Neutral Graphene Oxide Data Set
C          1.68299         2.36443         2.19074
C          1.61698         3.72983         1.92502
C          2.71227         1.58635         1.65414
C          2.59419         4.35565         1.12473
C          1.37858         6.55305         1.10717
C          1.29096         7.91974         0.82842
C          2.51802         5.77938         0.76714
C          2.31609         8.59696         0.16118
C          1.09949        10.76826        -0.09351
C          1.10543        12.14714        -0.35011
C          2.28642        10.01093        -0.13213
C          2.30463        12.84677        -0.48543
C          1.13920        15.12074        -0.97893
C          1.15290        16.45638        -0.85306
C          2.40505        14.29822        -0.92855
C          2.33763        17.25444        -0.34976
C          2.51053        18.60769        -0.98457
C          3.70898         2.17943         0.87027
C          3.65503         3.56654         0.61679
C          4.78302         1.30740         0.24870
C          4.74512         4.21791        -0.13949
C          3.58514         6.39810         0.08077
C          3.47081         7.81309        -0.30313
C          4.81110         5.69739        -0.18794
C          4.73350         8.54489        -0.75816
C          3.52598        10.69664        -0.36772
C          3.53491        12.12274        -0.38460
C          4.76204         9.99758        -0.50030
C          4.78524        12.80059        -0.26041
C          3.50705        15.01806        -0.16871
C          3.62493        16.47105        -0.33410
C          4.77310        14.23818         0.05613
C          4.85412        17.10156        -0.26728
C          3.72133        19.20098        -1.01823
C          4.93774        18.52204        -0.58703
C          6.10401         2.02161         0.05990
C          6.03465         3.44398        -0.34472
C          7.29201         1.35977         0.10983
C          7.27606         4.21732        -0.40078
C          6.00489         6.34207        -0.50670
C          6.03917         7.77777        -1.00109
C          7.27186         5.62743        -0.49754
C          7.28184         8.54300        -0.60428
C          5.99230        10.67305        -0.40653
C          6.00020        12.10120        -0.22285
C          7.23231         9.91483        -0.45481
C          7.21867        12.82821         0.09339
C          6.04249        14.97124         0.12361
C          6.07563        16.36066        -0.00801
C          7.24617        14.20012         0.27025
C          7.35185        17.05788         0.00899
C          6.15472        19.15851        -0.59475
C          7.38217        18.46890        -0.28218
C          8.55537         2.00977        -0.18769
C          8.51999         3.44595        -0.53248
C          9.76202         1.36025        -0.08408
C          9.82322         4.20694        -0.46562
C          8.50077         6.36699        -0.43382
C          8.53334         7.80274        -0.47188
C          9.73385         5.62761         0.03579
C          9.74499         8.48853        -0.29344
C          8.48755        10.69068        -0.42528
C          8.46196        12.03676         0.22750
C          9.80294         9.94776        -0.40945
C          9.75476        12.71669         0.53819
C          8.42876        14.95308         0.85391
C          8.53788        16.37017         0.29856
C          9.75979        14.18768         0.83033
C          9.79390        17.05642         0.27507
C          8.59611        19.15018        -0.26014
C          9.81641        18.47298         0.00730
C         11.03685         2.05031        -0.15737
C         11.06306         3.47109        -0.20694
C         12.25411         1.36249        -0.05299
C         12.28251         4.19583        -0.16110
C         11.05025         6.33728        -0.11649
C         11.01317         7.80783         0.18141
C         12.24574         5.66678        -0.16261
C         12.22455         8.50227        -0.45235
C         11.03924        10.70139        -0.08199
C         11.03184        12.05394         0.14854
C         12.34185         9.95795         0.02306
C         12.26494        12.82489         0.08290
C         11.05251        14.92079         0.70123
C         11.02896        16.38300         0.46759
C         12.29393        14.18868         0.33116
C         12.25647        17.07447         0.42830
C         11.04323        19.16743         0.02860
C         12.25784        18.49876         0.25131
C         13.49285         2.06150        -0.06396
C         13.49104         3.49499        -0.14239
C         14.71736         1.35821         0.00961
C         14.79829         4.20948        -0.37454
C         13.51553         6.40249        -0.08084
C         13.53091         7.78937        -0.15592
C         14.76775         5.67545         0.00668
C         14.75229         8.55882        -0.01638
C         13.53063        10.65192        -0.65613
C         13.49915        12.15870        -0.39271
C         14.78810         9.93474        -0.17002
C         14.80155        12.88342        -0.16661
C         13.53773        14.92735         0.42884
C         13.51119        16.37709         0.57242
C         14.74934        14.24958         0.35925
C         14.70539        17.11079         0.66438
C         13.50418        19.19689         0.28379
C         14.69471        18.53546         0.50644
C         15.97395         2.04087         0.14232
C         15.95916         3.46593         0.20732
C         17.18131         1.31672         0.17948
C         17.24108         4.19316         0.49598
C         15.94552         6.35691         0.21968
C         15.90831         7.81939         0.63388
C         17.21527         5.66645         0.16030
C         17.30106         8.50890         0.56529
C         16.02548        10.67855         0.00727
C         16.05163        12.10312        -0.02444
C         17.23470         9.97758         0.19253
C         17.26284        12.80563         0.13832
C         16.00886        14.90516         0.72126
C         15.98139        16.40510         0.91792
C         17.28274        14.23340         0.36982
C         17.29262        17.18102         0.91462
C         15.98408        19.33400         0.57958
C         17.19363        18.49388         0.13087
C         18.51683         2.00987         0.23428
C         18.34871         3.45943        -0.27713
C         19.62456         1.34196        -0.55590
C         19.64891         4.21479        -0.33828
C         18.38975         6.33690        -0.08633
C         18.32943         7.82337        -0.36147
C         19.65099         5.62223        -0.25738
C         19.68040         8.51087        -0.19657
C         18.46958        10.66001         0.09242
C         18.49401        12.07823         0.08749
C         19.70951         9.92180        -0.02024
C         19.73768        12.77581         0.03586
C         18.46578        14.96315         0.27187
C         18.51512        16.38517         0.44977
C         19.70771        14.24398        -0.10047
C         19.71016        17.10421         0.35655
C         18.49113        19.24593         0.28892
C         19.67747        18.56809         0.42240
C         20.71363         2.05248        -0.91285
C         20.80890         3.49752        -0.69051
C         22.00710         4.20927        -0.88577
C         20.87055         6.32868        -0.43764
C         20.88261         7.79082        -0.29433
C         22.03439         5.59516        -0.74158
C         22.10944         8.50030        -0.22280
C         20.94495        10.62808        -0.00776
C         20.95334        12.07840         0.04596
C         22.14162         9.87598        -0.10346
C         22.18260        12.82312         0.19698
C         21.03620        14.99826        -0.04695
C         20.99861        16.45484         0.25025
C         22.22286        14.18265         0.23564
C         22.15483        17.19634         0.37067
C         20.92685        19.28357         0.55135
C         22.11626        18.61423         0.54849
O         10.54482        14.50008         2.03559
O         20.37045        14.70802        -1.32462
O          5.06484         3.63719        -1.44989
O          3.74044         8.12098        -1.74247
O          9.24641         3.87516        -1.75584
O          3.80449        14.52981         1.16863
O          9.23434        10.54906        -1.66382
O          9.02451        11.97170         1.58722
O         15.95450        15.50549         2.08219
O         14.15860        12.84507        -1.51419
O          9.56073         5.51291         1.51936
H          8.63301         5.23717         1.68689
O         13.46990        10.48782        -2.08930
H         13.91970        11.27623        -2.48010
O         12.70051         9.97248         1.43029
H         12.02200         9.44663         1.91854
O          2.03625        17.50820         1.07034
H          2.24740        16.68789         1.56687
O         15.03631         4.16159        -1.83635
H         16.00290         4.00890        -1.97644
O          8.06870        15.12983         2.25318
H          8.91200        15.10041         2.76446
O         18.97474         1.99324         1.61335
H         18.34195         2.55174         2.12986
O         17.55517        17.53001         2.30407
H         17.25896        16.75530         2.83860
O         16.18899        19.83634         1.90367
H         16.60934        19.11314         2.43083
O          6.16696         7.64058        -2.45015
H          5.26337         7.44462        -2.79073
O         17.00724        18.13768        -1.26327
H         17.24449        18.90947        -1.81748
O          4.95326         0.09779         0.98685
H          5.26500         0.32328         1.88672
O         15.53517         7.80663         2.05533
H         14.57706         7.60067         2.10907
O          2.89913        14.24545        -2.30874
H          2.23024        13.77828        -2.85209
O         17.91315         8.44139         1.87207
H         17.18778         8.50258         2.53511
O         17.87610         8.02741        -1.72313
H         18.50476         7.58038        -2.32696
O         17.85919         3.39316        -1.65188
H         18.52907         2.91044        -2.18265
O         11.93764         8.41229        -1.85786
H         12.56742         8.99182        -2.34899
O         17.48477         4.13370         1.93937
H         18.10786         4.85564         2.16959
O         11.04112         7.91495         1.64191
H         10.46810         7.18492         1.98536
H          0.91117         1.89342         2.81512
H          0.79036         4.31231         2.35254
H          2.75238         0.50496         1.84605
H          0.53686         6.07950         1.62852
H          0.39734         8.46942         1.15630
H          0.13777        10.26421         0.07526
H          0.14560        12.68038        -0.40824
H          0.20732        14.61857        -1.28692
H          0.21230        17.01659        -0.97969
H          1.61502        19.14395        -1.33303
H          4.41950         1.00788        -0.77379
H          3.82625        20.22124        -1.41897
H          7.30266         0.29227         0.37923
H          6.21156        20.22498        -0.86142
H          9.77453         0.28355         0.14470
H          8.61832        20.23211        -0.45857
H         12.25858         0.26436         0.01320
H         11.04760        20.25526        -0.13581
H         14.70738         0.25826         0.00635
H         13.50460        20.28851         0.14629
H         17.14846         0.21645         0.18264
H         15.89004        20.22288        -0.10170
H         19.58500         0.25505        -0.72462
H         18.48094        20.34660         0.27111
H         21.56699         1.55671        -1.40127
H         22.92502         3.66873        -1.15713
H         22.98634         6.11823        -0.90431
H         23.06098         7.95424        -0.27196
H         23.11629        10.38161        -0.08947
H         23.11325        12.27005         0.38557
H         23.16189        14.68520         0.50921
H         23.13634        16.70621         0.30688
H         20.89764        20.37869         0.64491
H         23.06413        19.16184         0.64456
