         204
 CSIRO Nanostructure Databank - Neutral Graphene Oxide Data Set
C        -11.04431         0.67904        -0.53934
C         -9.81491         1.43346        -0.45587
C         -8.58615         0.70773        -0.31690
C         -7.34369         1.43774        -0.29172
C         -6.13283         0.74460        -0.24574
C         -4.86559         1.47961        -0.28123
C         -3.54469         0.73972        -0.22080
C         -2.43033         1.46637         0.41194
C         -1.29384         0.69348         0.92304
C          0.01561         1.45459         1.17618
C          1.29832         0.70189         1.00523
C          2.46577         1.40688         0.75938
C          3.76608         0.73049         0.72499
C          4.97868         1.46143         0.27381
C          6.14483         0.75207        -0.01265
C          7.37826         1.43801        -0.19595
C          8.60507         0.71425        -0.34125
C          9.82509         1.42795        -0.45703
C         11.04978         0.67930        -0.54159
C         -9.80363         2.83069        -0.51921
C         -8.58899         3.57881        -0.42058
C         -7.35241         2.87666        -0.30472
C         -6.13534         3.59958        -0.11355
C         -4.89442         2.91323         0.01766
C         -3.68520         3.59862         0.24144
C         -2.46033         2.86057         0.50145
C         -1.24532         3.60374         0.80511
C         -0.03444         2.91327         0.98760
C          1.24622         3.63110         1.07114
C          2.52669         2.88325         0.86564
C          3.72864         3.62484         0.37926
C          4.96715         2.88303         0.18673
C          6.16034         3.55481        -0.14265
C          7.38920         2.85887        -0.22364
C          8.62743         3.58154        -0.39560
C          9.81851         2.85004        -0.48292
C         -8.57842         4.99531        -0.43348
C         -7.37868         5.72492        -0.30475
C         -6.14315         5.02208        -0.10759
C         -4.91595         5.73253         0.03531
C         -3.69728         5.02702         0.25391
C         -2.47058         5.74937         0.42756
C         -1.28902         5.04617         0.74054
C         -0.04876         5.82809         0.84742
C          1.25460         5.11401         0.89788
C          2.36356         5.72133         0.07004
C          3.67350         4.98064         0.17004
C          4.84319         5.72746        -0.32719
C          6.14383         4.98634        -0.47706
C          7.41500         5.74014        -0.46281
C          8.60431         5.02204        -0.43638
C         -7.34576         7.14985        -0.38351
C         -6.14635         7.85447        -0.29836
C         -4.90829         7.15893        -0.07263
C         -3.68053         7.86946        -0.00750
C         -2.46506         7.18390         0.24899
C         -1.23006         7.91743         0.25413
C         -0.02188         7.24355         0.43643
C          1.24397         7.92187         0.38106
C          2.43698         7.22120         0.23906
C          3.68743         7.90508         0.04435
C          4.86975         7.19922        -0.19983
C          6.12660         7.86983        -0.40122
C          7.33255         7.16550        -0.51103
C         -6.10818         9.29147        -0.45479
C         -4.93106         9.97522        -0.43831
C         -3.66725         9.30404        -0.23001
C         -2.47523        10.00624        -0.24704
C         -1.21489         9.35788         0.00580
C         -0.02859        10.05834         0.06504
C          1.23980         9.41731         0.57815
C          2.51902        10.07076         0.13583
C          3.68458         9.36321        -0.01351
C          4.94963        10.02010        -0.28704
C          6.10497         9.31700        -0.44177
C        -11.04873        -0.68496        -0.50132
C         -9.82555        -1.43870        -0.36131
C         -8.58719        -0.71128        -0.25612
C         -7.37578        -1.43748        -0.06553
C         -6.12779        -0.68004         0.09303
C         -4.82709        -1.43246         0.19681
C         -3.53839        -0.78997        -0.30779
C         -2.34974        -1.46342         0.33314
C         -1.23739        -0.77384         0.72622
C         -0.01390        -1.50283         1.25739
C          1.28426        -0.75329         0.96443
C          2.45327        -1.47061         0.73994
C          3.75382        -0.78001         0.71544
C          4.93515        -1.48508         0.20817
C          6.08214        -0.70905        -0.37000
C          7.39040        -1.43600        -0.25377
C          8.60141        -0.72524        -0.32850
C          9.83952        -1.44570        -0.41739
C         11.05642        -0.69313        -0.51469
C         -9.81027        -2.83149        -0.32774
C         -8.59320        -3.56531        -0.20616
C         -7.35266        -2.84348        -0.05832
C         -6.10865        -3.57625         0.02971
C         -4.86389        -2.90368         0.10221
C         -3.62993        -3.60697         0.14134
C         -2.39316        -2.91249         0.33287
C         -1.17305        -3.61617         0.50842
C          0.01363        -2.94716         0.80852
C          1.26496        -3.65061         0.72200
C          2.48609        -2.91509         0.59304
C          3.68375        -3.60369         0.31341
C          4.92106        -2.86574         0.07631
C          6.13488        -3.55297        -0.25482
C          7.36717        -2.85533        -0.30547
C          8.61655        -3.58021        -0.38970
C          9.82196        -2.85667        -0.43449
C         -8.57895        -4.97107        -0.25249
C         -7.37055        -5.70414        -0.17807
C         -6.12869        -5.00245        -0.03133
C         -4.90561        -5.73459         0.04362
C         -3.65636        -5.04835         0.14832
C         -2.45944        -5.79099         0.28301
C         -1.11873        -5.09322         0.17997
C         -0.01104        -5.75862         1.01731
C          1.28995        -5.06155         0.68479
C          2.48073        -5.76429         0.43744
C          3.69195        -5.03363         0.19755
C          4.87864        -5.73594        -0.14017
C          6.09206        -4.99902        -0.64493
C          7.39645        -5.72856        -0.41835
C          8.58761        -5.01163        -0.39458
C         -7.36027        -7.12448        -0.28086
C         -6.16884        -7.84921        -0.23376
C         -4.92264        -7.15724        -0.04322
C         -3.70989        -7.88708         0.05111
C         -2.49835        -7.19272         0.29378
C         -1.26834        -7.98723         0.51117
C          0.02566        -7.27398         0.81249
C          1.27378        -7.94403         0.41165
C          2.47544        -7.20549         0.29908
C          3.69052        -7.88377         0.00738
C          4.89916        -7.14258        -0.17487
C          6.14760        -7.84909        -0.38248
C          7.35706        -7.14798        -0.42273
C         -6.13599        -9.28311        -0.38003
C         -4.95799        -9.97766        -0.36772
C         -3.69409        -9.31915        -0.16124
C         -2.48411       -10.01380        -0.24096
C         -1.23235        -9.38046         0.01572
C         -0.00535       -10.02807        -0.05347
C          1.24369        -9.33476         0.10654
C          2.47244       -10.00387        -0.12838
C          3.68610        -9.30747        -0.15000
C          4.94173        -9.98013        -0.37643
C          6.11552        -9.28442        -0.46083
O          0.79057         5.75212         2.10797
O         -0.13874        -1.54809         2.71146
H         -0.31558        -0.62173         3.00901
O          4.03416        -0.02947         1.96319
O          1.18767         9.63085         2.04602
H          0.51027         9.01608         2.40267
O         -3.99579         1.28296        -1.51029
O         -0.27515        -5.48860         2.40601
H         -0.65925        -6.31169         2.79180
O          1.93104         5.47481        -1.31765
H          2.68774         5.68850        -1.90671
O         -0.84830         1.03501         2.29095
O          2.09610         3.27170         2.22723
O         -3.45051        -1.16245        -1.71151
H         -3.71477        -0.36148        -2.22842
O          5.78489        -0.68126        -1.83601
H          5.80203        -1.61254        -2.14799
O         -0.71591        -7.93934         1.89262
O          5.29954         5.27329        -1.66307
O         -5.40530        -0.89193         1.41421
O          5.93042        -4.98388        -2.12747
H          6.79452        -4.71232        -2.50556
O         -0.71231        -5.22555        -1.21566
H         -1.35997        -4.73670        -1.76614
H         12.00926        -1.23901        -0.58050
H         11.99785         1.23079        -0.62616
H         10.77522         3.38392        -0.58751
H          9.56402         5.56053        -0.46561
H          8.26782         7.73906        -0.60350
H          7.05342         9.84621        -0.61704
H          4.96145        11.11900        -0.33738
H          2.53635        11.16921         0.06044
H         -0.04149        11.15244        -0.05848
H         -2.48428        11.09214        -0.42505
H         -4.92174        11.06579        -0.58253
H         -7.05729         9.82437        -0.61379
H         -8.28571         7.69732        -0.55000
H         -9.52807         5.53852        -0.55167
H        -10.75457         3.37394        -0.62657
H        -11.98984         1.23151        -0.64429
H        -11.99734        -1.23713        -0.57520
H        -10.75661        -3.38661        -0.41512
H         -9.52794        -5.51469        -0.37421
H         -8.31504        -7.65568        -0.41213
H         -7.08731        -9.81509        -0.52887
H         -4.96112       -11.06832        -0.51164
H         -2.49422       -11.08400        -0.49841
H          0.02657       -11.09266        -0.33173
H          2.46547       -11.08753        -0.31930
H          4.93984       -11.07608        -0.47060
H          7.06380        -9.82008        -0.61622
H          8.30468        -7.70838        -0.44189
H          9.54350        -5.55687        -0.35599
H         10.77426        -3.40426        -0.50237
