         210
 CSIRO Nanostructure Databank - Neutral Graphene Oxide Data Set
C         30.37200        31.71969        -0.42512
C         30.42166        32.88881         0.03503
C         30.67597        35.83275         1.36771
C         30.72060        37.06276         1.78887
C         30.64980        40.24385         2.09912
C         30.65260        41.48475         2.09031
C         32.81999        29.11288        -1.35407
C         31.69306        29.63398        -1.19357
C         32.77966        31.65814        -0.45146
C         31.52198        30.95581        -0.71151
C         32.76190        33.00659         0.02456
C         31.55286        33.69245         0.29215
C         32.75168        35.91424         0.12180
C         31.55016        35.07769         0.67958
C         32.69492        37.48244         0.42501
C         31.71720        37.94609         1.53862
C         33.01756        40.19177         1.54350
C         31.80862        39.35247         1.97056
C         32.93804        41.67455         1.41828
C         31.70981        42.36518         1.68780
C         32.87734        44.34595         1.22781
C         31.80693        43.76695         1.54703
C         35.52855        27.62761        -1.71282
C         35.34271        28.96977        -1.31005
C         34.10969        29.65049        -1.13107
C         35.30977        31.69264        -0.45266
C         34.05095        30.99582        -0.66478
C         35.31335        33.05191        -0.05384
C         34.04354        33.63615         0.55482
C         35.30848        35.93333         0.42353
C         34.02241        35.18791         0.56666
C         35.26179        37.40399         0.12372
C         34.05733        38.14835         0.56916
C         35.38378        40.24695         0.70366
C         34.15000        39.48637         0.87679
C         35.37819        41.67281         0.82654
C         34.13746        42.37694         1.07351
C         35.36302        44.51421         0.72002
C         34.15853        43.80952         0.99645
C         35.49158        45.91817         0.53086
C         37.89572        27.52292        -1.47982
C         36.61354        27.00576        -1.78774
C         37.84065        28.90912        -1.12736
C         36.58932        29.61956        -1.03877
C         37.79088        31.69154        -0.46190
C         36.55396        30.99969        -0.65182
C         37.76618        33.07857        -0.24575
C         36.54310        33.78182        -0.02098
C         37.80633        35.93867         0.21517
C         36.57077        35.20468         0.18942
C         37.83018        37.39154         0.25484
C         36.56931        38.14110         0.09784
C         37.81847        40.28933         0.36518
C         36.58134        39.58554         0.38789
C         37.82685        41.69169         0.49532
C         36.60026        42.39192         0.64880
C         37.83554        44.54687         0.27622
C         36.60772        43.83770         0.58652
C         37.83071        45.96553         0.05225
C         36.54064        46.52711         0.23486
C         40.33675        24.70986        -1.48400
C         39.30836        25.42114        -1.63874
C         40.33469        27.42045        -0.97851
C         39.11343        26.79283        -1.41102
C         40.30216        28.83636        -0.73688
C         39.07433        29.57280        -0.80811
C         40.27766        31.61991        -0.20592
C         39.05919        30.96529        -0.50649
C         40.23249        33.05222         0.27725
C         39.07111        33.82212        -0.35838
C         40.29120        35.88705         0.39923
C         39.01565        35.22822         0.16481
C         40.29719        37.40227         0.39068
C         39.01988        38.12105         0.23713
C         40.27950        40.27503         0.06609
C         39.05580        39.55666         0.20158
C         40.33483        41.67414         0.12867
C         39.13836        42.43252         0.64366
C         40.27871        44.53582        -0.17828
C         39.08284        43.86612         0.16807
C         40.26733        45.95502        -0.41949
C         39.01642        46.64666        -0.28688
C         40.18177        48.69696        -0.82100
C         39.16199        48.03216        -0.52792
C         42.80650        24.61144        -0.69862
C         41.55579        25.22535        -1.00631
C         42.71759        27.35295        -0.27855
C         41.53989        26.66190        -0.76903
C         42.70160        28.75400        -0.14046
C         41.51144        29.50803        -0.39148
C         42.76214        31.64920        -0.04981
C         41.50287        30.92334        -0.18661
C         42.75137        33.05028        -0.06193
C         41.53852        33.79150         0.06750
C         42.80297        35.92520         0.08757
C         41.55943        35.17347         0.12381
C         42.81611        37.34014         0.04037
C         41.53467        38.05219        -0.11010
C         42.81925        40.23891        -0.20997
C         41.52200        39.54256        -0.26304
C         42.79369        41.66536        -0.29747
C         41.54614        42.38158        -0.16091
C         42.73494        44.49499        -0.62968
C         41.52887        43.80168        -0.29699
C         42.70804        45.91744        -0.84960
C         41.47846        46.66452        -0.74765
C         42.72988        48.65819        -1.26274
C         41.46239        48.10610        -0.96080
C         43.77873        25.23464        -0.22911
C         45.10248        27.24847         0.48240
C         43.95265        26.62124         0.03961
C         45.13647        28.72197         0.73340
C         43.87352        29.48321         0.39582
C         45.23791        31.57891         0.25811
C         44.00098        30.93732         0.13776
C         45.31902        33.02000        -0.04274
C         44.00932        33.78867        -0.20792
C         45.26473        35.93872         0.11439
C         44.03469        35.23864         0.01612
C         45.25469        37.35170         0.12326
C         44.03079        38.05999         0.00222
C         45.27235        40.22588        -0.21326
C         44.01970        39.51820        -0.12802
C         45.25801        41.62618        -0.49634
C         44.01080        42.35414        -0.52210
C         45.17575        44.44419        -1.10845
C         43.97203        43.77324        -0.74552
C         45.14951        45.84851        -1.27947
C         43.94469        46.57324        -1.16640
C         43.77159        47.96452        -1.33078
C         47.45049        27.32331         1.01812
C         46.40460        26.72278         0.70167
C         47.63984        28.74991         0.99345
C         46.43286        29.45355         0.76911
C         47.72221        31.54935         0.59924
C         46.47519        30.86877         0.57785
C         47.77181        33.00919         0.31672
C         46.51990        33.80723         0.30605
C         47.76269        35.96105         0.35319
C         46.51947        35.19572         0.26702
C         47.79056        37.33642         0.22956
C         46.51164        38.12005         0.44631
C         47.73592        40.23035        -0.18806
C         46.51249        39.54176        -0.07217
C         47.73578        41.62796        -0.54480
C         46.49719        42.29148        -0.72528
C         47.79666        44.44149        -1.37526
C         46.43686        43.67466        -1.23547
C         47.58372        45.89020        -1.34153
C         46.45420        46.37950        -1.52281
C         50.06977        28.90552         1.64582
C         48.85080        29.44332         1.18585
C         50.18159        31.56273         1.19350
C         48.93624        30.87272         0.96509
C         50.38138        32.96841         0.59477
C         49.06748        33.74296         0.36849
C         50.31309        35.90528         0.35083
C         49.01196        35.21330         0.78337
C         50.27938        37.42810         0.45197
C         49.03276        38.11159         0.18332
C         50.24078        40.27198        -0.14102
C         48.98769        39.50801        -0.01611
C         50.21091        41.76011        -0.14041
C         48.98919        42.38661        -0.53654
C         50.16878        44.41281        -0.46241
C         48.96999        43.79004        -0.81539
C         51.13311        29.50138         1.94376
C         52.43057        31.74815         2.07263
C         51.31269        30.89383         1.75449
C         52.38430        32.98354         1.91384
C         51.44006        33.84724         1.30101
C         52.42116        36.16559         1.49513
C         51.46358        35.19508         1.12641
C         52.52911        37.39598         1.30928
C         51.44952        38.14885         0.71290
C         52.54962        40.49703         0.74611
C         51.56712        39.52642         0.28376
C         52.52532        41.71408         0.49448
C         51.40114        42.52393         0.13525
C         51.25609        43.90718        -0.06778
O         48.53206        33.40898        -0.93203
O         34.65653        35.71007         1.76222
O         41.36519        38.64928        -1.43782
O         35.82102        37.79552        -1.16348
O         40.40510        36.69215         1.64774
O         47.17391        43.81335        -2.50242
O         44.20113        29.13123         1.79334
O         44.79823        33.36684        -1.37209
O         51.19965        39.71648        -1.10000
O         32.83917        39.67558         2.92892
O         39.36129        42.52464         2.10670
H         38.59413        43.00025         2.49189
O         50.96105        32.71916        -0.70324
H         50.24192        32.82293        -1.37159
O         50.48128        35.61195        -1.04474
H         51.25691        36.10677        -1.38262
O         39.39251        33.92784        -1.78155
H         38.63682        34.35401        -2.23836
O         46.48228        38.26782         1.92641
H         45.68026        38.78640         2.15332
O         32.72187        35.74244        -1.29791
H         32.04382        36.36370        -1.65266
O         48.95817        35.18421         2.23300
H         48.73587        36.08255         2.55871
O         32.13296        38.09615        -0.77745
H         32.87061        38.35962        -1.36908
O         34.09462        33.21724         1.94660
H         34.56721        33.92750         2.44294
O         39.96750        33.01445         1.70374
H         40.66552        32.48042         2.13693
