         424
 CSIRO Nanostructure Databank - Neutral Graphene Oxide Data Set
C          1.56363         2.17991         2.39208
C          1.47384         3.57888         2.14315
C          2.73608         1.49760         2.19331
C          2.55775         4.30382         1.67889
C          1.34350         6.51713         1.81770
C          1.31284         7.89016         1.64952
C          2.50085         5.76245         1.49606
C          2.45487         8.61015         1.21777
C          1.25994        10.80699         1.22362
C          1.25156        12.18115         1.07921
C          2.44625        10.05351         1.04974
C          2.43452        12.90038         0.78133
C          1.24473        15.10884         0.78179
C          1.26344        16.49057         0.68629
C          2.43583        14.34664         0.68681
C          2.48077        17.19057         0.52950
C          2.50972        18.62234         0.40628
C          3.89830         2.17760         1.69776
C          3.80349         3.60098         1.41933
C          5.08806         1.49132         1.46776
C          4.90595         4.26573         0.89872
C          3.63108         6.46083         1.03874
C          3.64084         7.87889         0.94709
C          4.80884         5.71123         0.47481
C          4.86283         8.59296         0.61723
C          3.64088        10.74330         0.70442
C          3.64418        12.17031         0.59793
C          4.86470        10.01098         0.50624
C          4.87177        12.86820         0.33367
C          3.67109        15.03063         0.50164
C          3.69806        16.45832         0.46448
C          4.88474        14.29090         0.31941
C          4.94727        17.15398         0.36727
C          3.68696        19.29021         0.23320
C          4.95313        18.59763         0.23484
C          6.24106         2.14366         0.93655
C          6.14115         3.56747         0.62912
C          7.44429         1.46814         0.74527
C          7.22895         4.23203         0.07833
C          6.13093         6.40461         0.79440
C          6.09012         7.89302         0.51898
C          7.21271         5.70295        -0.02151
C          7.28630         8.58136         0.29573
C          6.08238        10.70825         0.23507
C          6.09216        12.14726         0.14255
C          7.30197         9.98801         0.12941
C          7.30484        12.84233        -0.10435
C          6.11701        14.99030         0.14632
C          6.14116        16.41286         0.25751
C          7.32711        14.27019        -0.09563
C          7.43673        17.08628         0.30007
C          6.13153        19.29614         0.00440
C          7.43183        18.67254         0.16540
C          8.58951         2.08570         0.13157
C          8.43961         3.49247        -0.33936
C          9.77397         1.41236        -0.02068
C          9.67197         4.23361        -0.78725
C          8.47064         6.44977        -0.30282
C          8.57140         7.80106         0.40827
C          9.76258         5.77012        -0.77475
C          9.80909         8.53508        -0.01945
C          8.55238        10.68605        -0.10091
C          8.55038        12.10946        -0.25315
C          9.76856         9.97524        -0.19938
C          9.75980        12.79081        -0.48490
C          8.54816        14.98588        -0.33163
C          8.63082        16.36961        -0.15810
C          9.73837        14.24542        -0.88049
C          9.85164        17.09705        -0.39246
C          8.65554        19.27564        -0.33584
C          9.84547        18.54402        -0.43227
C         10.95561         1.94615        -0.79405
C         10.98380         3.48000        -0.87605
C         12.26602         1.35276        -0.32509
C         12.26658         4.21792        -0.64653
C         10.95123         6.31276         0.03548
C         10.96341         7.82164        -0.13200
C         12.26269         5.66273        -0.34263
C         12.22879         8.46295        -0.62065
C         11.00028        10.66823        -0.38306
C         10.99347        12.09067        -0.48286
C         12.23523         9.96249        -0.44307
C         12.24078        12.78858        -0.55543
C         11.04803        14.96446        -0.66049
C         11.06736        16.40238        -0.63131
C         12.23461        14.22991        -0.62928
C         12.31144        17.10855        -0.82825
C         11.08153        19.22532        -0.61701
C         12.31384        18.57516        -0.77777
C         13.48197         2.04403        -0.26758
C         13.50833         3.47969        -0.37307
C         14.72418         1.36159        -0.07050
C         14.71544         4.19585        -0.27944
C         13.45108         6.33214        -0.22482
C         13.43647         7.81457         0.06941
C         14.70935         5.63126        -0.29695
C         14.72442         8.52359        -0.27688
C         13.45370        10.65170        -0.43364
C         13.46186        12.08505        -0.47970
C         14.71472         9.92642        -0.39996
C         14.72123        12.79492        -0.46336
C         13.49301        14.91684        -0.64412
C         13.48978        16.33191        -0.90706
C         14.70523        14.22202        -0.52472
C         14.75418        16.87760        -1.29714
C         13.48745        19.40215        -0.68405
C         14.75792        19.01456        -1.14194
C         15.95668         2.04693        -0.06042
C         15.96072         3.49176        -0.17465
C         17.19083         1.36097         0.04652
C         17.17092         4.20403        -0.22985
C         15.92525         6.35125        -0.31015
C         15.93245         7.79859        -0.36166
C         17.15632         5.63626        -0.34733
C         17.16817         8.50870        -0.47868
C         15.95251        10.64414        -0.43667
C         15.94730        12.08724        -0.44431
C         17.16851         9.92136        -0.44128
C         17.20652        12.80841        -0.57861
C         15.98443        14.99282        -0.29346
C         15.97989        16.35882        -0.93101
C         17.22072        14.22191        -0.66339
C         17.19817        17.11822        -1.01868
C         16.04610        19.39869        -0.75466
C         17.21350        18.57790        -0.96068
C         18.44026         2.04154         0.03067
C         18.43089         3.49188        -0.14250
C         19.65592         1.34288         0.04600
C         19.61373         4.17109        -0.37629
C         18.36562         6.35910        -0.55981
C         18.39847         7.76193        -0.61156
C         19.58505         5.57749        -0.80700
C         19.66505         8.46069        -0.70490
C         18.46244        10.65999        -0.21080
C         18.42787        12.10003        -0.66065
C         19.69293         9.92033        -0.66337
C         19.63300        12.79242        -0.91305
C         18.41634        14.93226        -0.90402
C         18.42636        16.39844        -0.97154
C         19.61798        14.20309        -1.06258
C         19.66891        17.08647        -1.00126
C         18.46091        19.22428        -0.88169
C         19.68875        18.52607        -0.94322
C         20.93715         2.03481         0.14341
C         20.91018         3.53751        -0.13893
C         22.23664         1.33719        -0.05543
C         22.15634         4.22041        -0.55176
C         20.90354         6.32430        -0.89858
C         20.86425         7.77013        -0.73483
C         22.17240         5.57991        -0.71750
C         22.14937         8.51344        -0.48036
C         20.86099        10.60845        -0.88780
C         20.89144        12.05562        -0.94251
C         22.13991         9.85410        -1.21020
C         22.11825        12.71470        -0.95342
C         20.87594        14.92962        -1.31015
C         20.90800        16.38629        -1.08942
C         22.17976        14.16614        -1.19951
C         22.13988        17.05767        -1.02780
C         20.92655        19.20276        -0.93437
C         22.15304        18.50188        -0.94640
C         23.36835         1.97184        -0.42683
C         23.38126         3.41036        -0.89969
C         24.64221         1.18876        -0.68817
C         24.67114         4.14888        -0.61072
C         23.42092         6.32648        -0.78916
C         23.40898         7.72707        -0.76106
C         24.66220         5.60947        -0.69047
C         24.62772         8.46596        -0.74597
C         23.39294        10.62694        -0.84667
C         23.35796        12.00218        -0.76754
C         24.62939         9.89720        -0.71854
C         24.56582        12.75066        -0.25512
C         23.41637        14.91248        -0.89896
C         23.39407        16.33784        -0.94801
C         24.59954        14.21749        -0.61184
C         24.60935        17.04844        -0.77615
C         23.38578        19.18672        -0.87293
C         24.61651        18.49413        -0.78044
C         25.91764         1.99816        -0.51576
C         25.84922         3.44727        -0.49951
C         27.12975         1.35960        -0.45915
C         27.15263         4.19321        -0.66111
C         25.85046         6.33787        -0.58615
C         25.86308         7.75658        -0.65496
C         27.09334         5.62568        -0.12474
C         27.09768         8.47288        -0.62163
C         25.86227        10.60462        -0.62882
C         25.86932        12.03407        -0.52002
C         27.10077         9.88486        -0.64552
C         27.06789        12.74354        -0.43514
C         25.82435        14.91437        -0.49351
C         25.83281        16.34072        -0.58763
C         27.06509        14.19508        -0.33721
C         27.05685        17.05457        -0.43235
C         25.83913        19.18246        -0.65595
C         27.06663        18.49095        -0.48204
C         28.40142         2.05701        -0.25658
C         28.37331         3.46337        -0.17109
C         29.60485         1.33176        -0.16333
C         29.57918         4.29415         0.20671
C         28.36526         6.37428        -0.47016
C         28.34825         7.72666        -0.62394
C         29.64337         5.57622        -0.65900
C         29.61683         8.46330        -0.98114
C         28.34790        10.61582        -0.58826
C         28.32867        12.04107        -0.46537
C         29.57845         9.92559        -0.60717
C         29.54403        12.75274        -0.34659
C         28.26316        14.89897        -0.18382
C         28.27297        16.34598        -0.19172
C         29.53567        14.19519        -0.15282
C         29.47527        17.05538        -0.00379
C         28.29205        19.17726        -0.34147
C         29.50337        18.48078        -0.10599
C         30.88418         2.00386         0.09359
C         30.88292         3.50891         0.23569
C         32.18188         1.36547        -0.18311
C         32.13821         4.24732        -0.00663
C         30.88575         6.37739        -0.37205
C         30.86569         7.75855        -0.50194
C         32.12366         5.65901        -0.16761
C         32.06343         8.51207        -0.36590
C         30.78238        10.61843        -0.36799
C         30.77493        12.03969        -0.25888
C         32.04086         9.91635        -0.26592
C         31.99725        12.72769         0.00090
C         30.71402        14.88360         0.04082
C         30.69665        16.32151         0.48459
C         32.03334        14.21206        -0.22252
C         32.00243        17.04268         0.25150
C         30.74079        19.17208         0.00002
C         31.98740        18.49557         0.12947
C         33.36298         2.07536        -0.14287
C         33.35929         3.54049        -0.07235
C         34.64487         1.40157        -0.18279
C         34.57359         4.25902        -0.14576
C         33.34789         6.35958        -0.19907
C         33.37599         7.81797        -0.54215
C         34.57335         5.67112        -0.12617
C         34.55742         8.55349         0.02572
C         33.23068        10.62571         0.08937
C         33.17468        12.02867         0.27768
C         34.49099         9.92767         0.24643
C         34.31370        12.71935         0.99197
C         33.21445        14.89881         0.40801
C         33.19373        16.35829         0.37110
C         34.31774        14.21758         0.80999
C         34.45826        17.05901         0.50959
C         33.18671        19.19298         0.08537
C         34.53229        18.52829         0.14208
C         35.84491         2.08065        -0.20270
C         35.85896         3.56211        -0.49259
C         37.11039         1.41694        -0.14440
C         37.08287         4.28648         0.00163
C         35.81967         6.42049        -0.01840
C         35.79212         7.83296         0.12601
C         37.04924         5.71697         0.12685
C         36.99964         8.56157         0.35182
C         35.70206        10.67845         0.54238
C         35.65734        12.05522         0.78903
C         36.96336         9.98029         0.52552
C         36.85880        12.80663         1.04598
C         35.48792        14.94976         1.40985
C         35.56978        16.39898         0.97381
C         36.80144        14.19546         1.24834
C         36.81789        17.11801         1.19718
C         35.49089        19.27557         1.08899
C         36.81096        18.54780         1.20423
C         38.30302         2.12839        -0.06535
C         38.29224         3.57666         0.08956
C         39.57644         1.45680        -0.06387
C         39.51605         4.26857         0.29950
C         38.24271         6.44432         0.37847
C         38.23613         7.85371         0.43345
C         39.50267         5.70906         0.73468
C         39.47352         8.59298         0.51995
C         38.17078        10.70360         0.69617
C         38.13794        12.11293         0.95859
C         39.43361        10.01373         0.60631
C         39.35691        12.81835         1.05906
C         37.99413        14.95207         1.59956
C         38.01312        16.42320         1.44782
C         39.37677        14.21549         1.49937
C         39.24566        17.13179         1.56696
C         37.97792        19.24171         1.45573
C         39.22033        18.56043         1.60250
C         40.74675         2.15410         0.03907
C         40.74795         3.58486         0.21844
C         41.95709         4.32746         0.24952
C         40.76700         6.46509         0.40726
C         40.72674         7.90533         0.42956
C         41.95041         5.72796         0.27811
C         41.90937         8.68261         0.35838
C         40.64819        10.76052         0.57328
C         40.60444        12.19963         0.73203
C         41.87002        10.06409         0.42464
C         41.75242        13.00554         0.60693
C         40.57283        15.02973         1.29110
C         40.51495        16.45759         1.55629
C         41.71811        14.39247         0.81502
C         41.68683        17.21467         1.70098
C         40.43061        19.28297         1.75959
C         41.64054        18.61149         1.83209
O         20.20022         5.84590        -2.11595
O         38.70660        14.46109         2.77362
O         21.60646        14.51269        -2.51911
O         21.01276         3.01385         1.24809
O         30.93514         2.68965         1.45614
O          7.62273        17.96221         1.43704
O         14.72605        17.99725        -2.12660
O          7.43884         6.35747        -1.31998
O         11.74133         3.91703        -2.04883
O          8.74036         3.72382        -1.78178
O         24.41090        12.74118         1.21632
H         24.39219        11.80173         1.49970
O         16.06444        15.20883         1.16524
H         16.09450        14.32428         1.58850
O         18.58339        10.72826         1.26713
H         19.48484        11.05971         1.46922
O         22.19018         8.83539         0.94673
H         22.28702         7.99673         1.44501
O         39.48774         5.64359         2.22985
H         40.30724         5.17414         2.49798
O         33.60269         7.84558        -2.01681
H         33.51040         8.77932        -2.30510
O          8.72707         7.51024         1.84382
H          8.90280         8.36148         2.29769
O         23.33957         3.29175        -2.37149
H         23.24934         4.19739        -2.73973
O         34.90990        19.38649         2.39384
H         34.83875        18.48648         2.77598
O         29.70899         8.42316        -2.44716
H         29.81303         7.47542        -2.69427
O         29.76694         5.22363        -2.06372
H         28.88236         4.87740        -2.36040
O         30.55786        16.28172         1.96012
H         29.69667        15.85666         2.16133
O         24.68795        -0.00654         0.09193
H         24.77150         0.24433         1.03452
O         29.43088         4.77386         1.58760
H         29.72383         4.02193         2.15751
O         26.93054         5.58825         1.31777
H         27.80443         5.32244         1.70890
O         22.17237         9.58509        -2.63212
H         22.11588        10.44092        -3.10587
O         32.25513        14.36785        -1.68131
H         31.51550        13.91161        -2.13756
O         13.21927         7.97548         1.50861
H         14.06464         7.77405         1.96297
O         10.74521         5.94907         1.42465
H         11.38026         6.47698         1.95715
O          9.55267        14.23138        -2.35222
H          9.59506        15.16246        -2.65834
O         10.81658         1.44960        -2.16232
H         11.23904         2.12635        -2.74137
O         34.01489        12.52845         2.43544
H         34.10236        11.56981         2.62799
O          6.38042         6.19673         2.19975
H          7.25493         6.61507         2.40521
O         35.26297        14.98954         2.85805
H         34.89777        14.10661         3.11001
O          4.65710         5.73527        -0.97157
H          3.82717         5.26780        -1.19985
O         12.31232         8.19000        -2.04864
H         11.59843         7.55342        -2.29098
O         35.94940         3.65336        -1.96901
H         35.13498         3.24547        -2.33390
O         10.00633         6.20278        -2.12826
H          9.26664         5.84951        -2.67240
O         35.13008        18.63754        -1.18729
H         34.54887        18.15942        -1.81534
O         27.27019         4.30892        -2.14264
H         27.16442         3.40416        -2.50873
H          0.67415         1.65173         2.76356
H          0.51452         4.07502         2.34338
H          2.79935         0.41985         2.40191
H          0.44046         6.01282         2.18755
H          0.38191         8.42318         1.88490
H          0.31795        10.30107         1.47321
H          0.30364        12.71599         1.22366
H          0.27752        14.60536         0.91153
H          0.32170        17.05599         0.73786
H          1.55745        19.17198         0.43441
H          5.13973         0.41325         1.68218
H          3.69328        20.38438         0.12217
H          7.52032         0.41037         1.03884
H          6.08698        20.34399        -0.32904
H          9.83282         0.36535         0.31517
H          8.65427        20.34448        -0.59760
H         12.28981         0.25495        -0.23798
H         11.07009        20.32503        -0.57969
H         14.71763         0.26532         0.02218
H         13.37403        20.37516        -0.18156
H         17.18465         0.26460         0.13942
H         16.18516        20.34680        -0.21300
H         19.64957         0.24647        -0.04675
H         18.48429        20.32086        -0.79421
H         22.28091         0.25768         0.16450
H         20.93753        20.30212        -0.89224
H         24.60283         0.86253        -1.76607
H         23.38674        20.28671        -0.84351
H         27.15017         0.25959        -0.49619
H         25.84142        20.28253        -0.66988
H         29.59604         0.24191        -0.30858
H         28.30604        20.27540        -0.40277
H         32.20751         0.27554        -0.33644
H         30.74320        20.26884        -0.08748
H         34.64856         0.30202        -0.11799
H         33.16943        20.28435        -0.05839
H         37.13477         0.31611        -0.13472
H         35.65100        20.31328         0.70643
H         39.59175         0.36280        -0.17738
H         37.96281        20.34062         1.50826
H         41.71250         1.62909         0.00110
H         42.91401         3.79431         0.15723
H         42.91281         6.24789         0.16834
H         42.88632         8.18883         0.26911
H         42.81746        10.61821         0.38767
H         42.70651        12.55460         0.30378
H         42.63414        14.97238         0.63502
H         42.66348        16.71163         1.72129
H         40.39808        20.38059         1.81187
H         42.57605        19.17349         1.96068
