         429
 CSIRO Nanostructure Databank - Neutral Graphene Oxide Data Set
C          1.26089         2.01847         0.47257
C          1.25180         3.43292         0.51850
C          2.44616         1.31809         0.45965
C          2.43660         4.16128         0.59079
C          1.25843         6.36165         0.19815
C          1.19028         7.70722         0.31467
C          2.46004         5.62367         0.55617
C          2.34876         8.45787         0.84033
C          1.12760        10.78906         0.81641
C          1.16919        12.14449         0.82875
C          2.31840         9.94693         1.05552
C          2.39810        12.91687         0.88815
C          1.22957        15.10138         0.70509
C          1.22103        16.45219         0.56377
C          2.42618        14.28822         0.69118
C          2.44254        17.23338         0.29775
C          2.49851        18.66673         0.61345
C          3.69369         2.01244         0.53237
C          3.68561         3.44674         0.64664
C          4.91519         1.32040         0.51150
C          4.90533         4.14193         0.77887
C          3.63650         6.32002         0.79759
C          3.66733         7.76185         0.78250
C          4.89363         5.59234         1.20612
C          4.86540         8.46529         0.79879
C          3.64260        10.66398         1.14240
C          3.66107        12.15782         1.08718
C          4.86379         9.96275         0.56352
C          4.97671        12.82514         0.93211
C          3.76172        14.92750         0.31773
C          3.77450        16.45545         0.29755
C          4.92239        14.30341         1.07087
C          4.96508        17.20891         0.65799
C          3.68492        19.32761         0.60182
C          4.95232        18.62071         0.58791
C          6.14477         2.01561         0.54591
C          6.13068         3.45084         0.67892
C          7.38484         1.33826         0.47087
C          7.36625         4.17728         0.63441
C          6.15697         6.32730         0.82564
C          6.13670         7.78321         0.77403
C          7.32632         5.62486         0.64089
C          7.32805         8.51645         0.73428
C          6.16806        10.66750         0.88810
C          6.15010        12.11067         1.03068
C          7.35284         9.94790         0.86089
C          7.44584        12.81667         1.22900
C          6.16574        15.07648         1.36790
C          6.18616        16.59756         1.30868
C          7.47907        14.33332         1.34456
C          7.44745        17.20032         0.74818
C          6.18124        19.31783         0.62387
C          7.42625        18.61543         0.55849
C          8.60389         2.04400         0.45722
C          8.58644         3.48638         0.49878
C          9.84738         1.36144         0.38068
C          9.83638         4.20386         0.40768
C          8.55225         6.38808         0.21368
C          8.63930         7.77137         0.85144
C          9.84283         5.61954         0.35436
C          9.83074         8.49420         0.27147
C          8.71204        10.61511         1.06022
C          8.68020        12.11968         0.81609
C          9.82414         9.92544         0.28684
C          9.81602        12.82650         0.52596
C          8.67215        15.03218         0.81530
C          8.63722        16.45286         0.59843
C          9.82819        14.29173         0.47482
C          9.83947        17.14058         0.22991
C          8.63656        19.29346         0.30995
C          9.84669        18.57787         0.15630
C         11.07167         2.05397         0.34402
C         11.06466         3.49918         0.35103
C         12.31151         1.36834         0.27051
C         12.29526         4.21344         0.28301
C         11.04516         6.32794         0.24302
C         11.01918         7.77073         0.10407
C         12.29920         5.63960         0.22794
C         12.24771         8.45037        -0.15209
C         10.95069        10.63312        -0.06554
C         11.11531        12.05317         0.44382
C         12.15949         9.88462        -0.46498
C         12.24795        12.78538        -0.23886
C         10.98174        14.98515         0.00626
C         11.02116        16.40543        -0.05675
C         12.12193        14.22319        -0.53301
C         12.23730        17.11943        -0.38344
C         11.06541        19.25702        -0.06645
C         12.26263        18.55023        -0.31042
C         13.54060         2.05507         0.25288
C         13.53482         3.50840         0.27831
C         14.77012         1.35811         0.15832
C         14.73970         4.23130         0.33348
C         13.52826         6.36087         0.14542
C         13.48660         7.79315        -0.07482
C         14.76182         5.65320         0.25906
C         14.71796         8.55393        -0.11416
C         13.45856        10.64383        -0.59469
C         13.41093        12.12984        -0.53091
C         14.70480         9.92671        -0.29756
C         14.63161        12.82971        -0.89726
C         13.36570        14.98126        -0.99652
C         13.42575        16.44139        -0.75805
C         14.63501        14.24260        -1.10084
C         14.62698        17.14473        -0.95647
C         13.48480        19.24374        -0.54739
C         14.65314        18.56015        -0.85549
C         16.01228         2.02839         0.23670
C         15.99152         3.47979         0.53494
C         17.23804         1.38021         0.07196
C         17.30110         4.24327         0.48625
C         16.02714         6.36183         0.22856
C         15.98804         7.84930         0.21462
C         17.25321         5.70778         0.26044
C         17.28716         8.60947         0.15077
C         15.92154        10.76007        -0.32781
C         15.82738        12.10629        -0.91743
C         17.27697        10.06767        -0.22681
C         17.05999        12.79815        -1.28520
C         15.85322        14.95447        -1.21307
C         15.85892        16.44249        -1.48955
C         17.06136        14.26023        -1.20243
C         17.15724        17.13195        -1.10673
C         15.90215        19.30376        -1.28577
C         17.17485        18.53934        -0.99860
C         18.49135         2.08594         0.04575
C         18.52071         3.48613         0.18775
C         19.70975         1.38135        -0.19154
C         19.81473         4.23122         0.25950
C         18.51492         6.37845        -0.01788
C         18.63298         7.89199         0.11717
C         19.67443         5.66638        -0.19339
C         19.66180         8.53181        -0.78818
C         18.43671        10.63882        -0.91245
C         18.38309        12.04319        -1.33971
C         19.62186         9.89292        -1.08771
C         19.63832        12.79184        -1.28616
C         18.30872        14.94847        -0.89103
C         18.35819        16.41344        -0.95076
C         19.64741        14.18242        -0.90205
C         19.60560        17.06095        -0.74800
C         18.37903        19.19376        -0.73276
C         19.60409        18.48687        -0.62225
C         20.94805         2.05250        -0.37412
C         20.99610         3.48837        -0.30626
C         22.15275         1.34774        -0.59422
C         22.18528         4.16554        -0.55074
C         20.89225         6.31168        -0.74191
C         20.87591         7.76315        -1.09800
C         22.23286         5.67296        -0.41490
C         22.16629         8.49066        -1.25127
C         20.84927        10.56658        -1.59859
C         20.87329        12.10206        -1.59521
C         22.15295         9.88851        -1.41816
C         22.15049        12.81230        -1.40711
C         20.90168        14.95450        -0.96465
C         20.85787        16.33328        -0.76394
C         22.13629        14.19633        -1.13430
C         22.15167        17.04578        -0.41501
C         20.82345        19.18738        -0.39955
C         22.08565        18.58201        -0.39696
C         23.39070         2.02626        -0.72343
C         23.39899         3.46065        -0.76801
C         24.62335         1.32582        -0.74277
C         24.64844         4.17043        -0.89976
C         23.35992         6.26926        -1.27903
C         23.38731         7.78367        -1.19909
C         24.67360         5.58829        -0.98658
C         24.59927         8.49197        -1.27695
C         23.36530        10.61754        -1.54074
C         23.37828        12.08670        -1.54698
C         24.58105         9.89016        -1.47067
C         24.59291        12.80237        -1.54861
C         23.37354        14.91111        -1.11342
C         23.35261        16.33199        -1.03532
C         24.60679        14.22178        -1.36975
C         24.56183        16.97622        -1.25922
C         23.19871        19.37886        -0.02831
C         24.53175        19.00375        -0.38741
C         25.86261         2.00906        -0.77266
C         25.86818         3.44726        -0.88666
C         27.08906         1.31662        -0.66622
C         27.10498         4.15189        -0.99393
C         25.88999         6.29213        -1.07171
C         25.89451         7.79999        -0.88792
C         27.10098         5.58269        -1.09502
C         27.15065         8.50466        -1.36619
C         25.85364        10.58839        -1.73397
C         25.87241        12.09781        -1.79409
C         27.12715         9.86549        -1.56129
C         27.16392        12.79370        -1.55945
C         25.83597        14.93753        -1.33323
C         25.83094        16.33678        -1.15854
C         27.14495        14.29385        -1.70811
C         27.01530        17.08714        -0.79386
C         25.76032        19.12705         0.20995
C         26.96884        18.42086        -0.23139
C         28.33581         2.00005        -0.71396
C         28.32266         3.41824        -0.93293
C         29.55543         1.32366        -0.44879
C         29.58229         4.16059        -0.77987
C         28.37678         6.28802        -1.49214
C         28.40111         7.78821        -1.34833
C         29.61059         5.65128        -0.90716
C         29.62766         8.44010        -1.37298
C         28.37189        10.63164        -1.77057
C         28.35608        12.09936        -1.53061
C         29.68142         9.89396        -1.60405
C         29.60962        12.76192        -1.23486
C         28.31024        14.98222        -1.06099
C         28.26273        16.35015        -0.73258
C         29.50489        14.17518        -0.79943
C         29.48070        17.04230        -0.37676
C         28.17302        19.05860         0.09135
C         29.44191        18.43806        -0.07355
C         30.84484         1.92180        -0.76791
C         30.86186         3.44918        -0.98556
C         32.12839         1.33868        -0.33082
C         32.11364         4.20218        -0.88675
C         30.90252         6.34689        -1.09165
C         30.89118         7.73872        -1.23169
C         32.12491         5.60815        -0.96894
C         32.12436         8.48624        -1.11791
C         30.92130        10.64245        -1.28927
C         30.84300        12.09045        -1.14975
C         32.10608         9.94128        -1.15048
C         32.07430        12.81122        -0.85683
C         30.78508        14.92051        -0.47985
C         30.74328        16.39227        -0.42997
C         32.06930        14.22171        -0.66021
C         31.93190        17.11106        -0.30356
C         30.64259        19.14697         0.13150
C         31.89665        18.51015        -0.00654
C         33.30450         2.00588        -0.44675
C         33.33992         3.41225        -0.93034
C         34.57026         1.37656         0.10749
C         34.67731         4.21703        -0.77847
C         33.35794         6.35402        -0.83650
C         33.31133         7.78994        -0.83938
C         34.56361         5.66127        -0.58242
C         34.48552         8.54047        -0.26207
C         33.41726        10.68972        -1.27895
C         33.33140        12.14418        -0.86030
C         34.61844         9.98345        -0.68466
C         34.51454        12.85115        -0.61257
C         33.25303        14.95048        -0.51329
C         33.25345        16.45671        -0.61307
C         34.49713        14.26899        -0.40766
C         34.42553        17.11392         0.06713
C         33.11266        19.20475         0.22945
C         34.35353        18.52214         0.32657
C         35.88361         2.00218        -0.45634
C         35.85562         3.50220        -0.29247
C         37.07956         1.36674         0.20159
C         36.92307         4.21998         0.25826
C         35.75664         6.37525        -0.20625
C         35.76980         7.76433        -0.27795
C         36.92843         5.65154         0.22073
C         37.05385         8.46402        -0.17016
C         35.78526        10.65940        -0.52378
C         35.81899        12.13570        -0.64394
C         37.08091         9.96576        -0.26862
C         37.06524        12.85437        -0.19788
C         35.66071        14.98831         0.00708
C         35.61894        16.39443         0.27212
C         36.87741        14.23518         0.34640
C         36.80741        17.10389         0.71784
C         35.52209        19.21386         0.71332
C         36.74992        18.53499         0.88759
C         38.07622         2.07242         0.80703
C         38.04385         3.53082         0.85704
C         39.27648         1.40666         1.31420
C         39.09124         4.24532         1.42833
C         38.07401         6.36470         0.67955
C         38.16153         7.77289         0.50049
C         39.16166         5.66730         1.28700
C         39.29474         8.49611         0.91482
C         38.25155        10.66869         0.30416
C         38.26772        12.11663         0.29740
C         39.34326         9.93662         0.75729
C         39.37899        12.81814         0.74225
C         38.08420        14.97029         0.83906
C         38.02704        16.44311         0.93132
C         39.43509        14.32897         0.59033
C         39.21083        17.15252         1.27792
C         37.91917        19.24015         1.24375
C         39.14580        18.57676         1.43539
C         40.25635         2.08517         1.94046
C         40.09837         3.53990         2.30669
C         41.39725         4.29225         2.40173
C         40.31673         6.39007         1.71009
C         40.36580         7.79440         1.56691
C         41.46090         5.62169         2.18765
C         41.42758         8.58119         2.16776
C         40.67537        10.62738         0.96263
C         40.55790        12.12396         1.20057
C         41.53895         9.90970         1.96549
C         41.61729        12.84634         1.70510
C         40.52230        15.01338         1.38994
C         40.44928        16.46704         1.52748
C         41.57104        14.26788         1.86114
C         41.56888        17.21739         1.90000
C         40.32094        19.29396         1.80926
C         41.50352        18.61956         2.03341
O         12.35140        14.55578        -1.96303
O         29.52205         5.04210         0.41606
O         16.75936        10.86985         0.88873
O         29.98680        14.33169         0.60107
O          3.74111        11.38938         2.37882
O          2.10226         9.03339         2.18984
O          3.14142        16.92159        -0.95483
O         29.15365        10.24903        -2.94629
O         37.46341         9.14584        -1.43800
O          9.16317        10.41765         2.40559
O         25.84210        11.30309        -3.03587
O         20.75949        11.29172        -2.84592
O         24.54584        18.31077        -1.62108
O         17.61091        12.29218        -2.59683
O          7.65339        13.49678         2.51974
O         18.89449        14.42112         0.35732
O         37.22814        14.27795         1.79427
O         16.63106         8.39721         1.43663
O         34.19019         3.70935        -2.07959
O         16.68587         3.84003         1.77953
O          5.22423        14.70149         2.44215
O         30.85869         2.53117        -2.11639
O         12.73574        10.18621        -1.79561
O         20.67433         6.70127        -2.15288
O         36.77816        12.69587        -1.62138
O          6.16537        17.06481         2.70077
H          5.68875        16.37613         3.22120
O         20.15023         4.36735         1.71134
H         19.31397         4.57364         2.18577
O          8.39001         6.64874        -1.22165
H          8.35782         5.78267        -1.67982
O         33.66782        10.70752        -2.72669
H         34.53502        11.14220        -2.87716
O         28.51223         6.03645        -2.93346
H         27.83921         6.57158        -3.40549
O          4.01677        14.50893        -1.05636
H          3.50604        15.12468        -1.63299
O         19.20589         8.06911         1.45679
H         18.44211         8.14432         2.07729
O          8.91889         7.69123         2.26991
H          9.02373         8.64712         2.57449
O         41.37060        10.49285        -0.33154
H         40.71176        10.65513        -1.04039
O         34.53553         1.54157         1.53041
H         35.35815         1.15664         1.89906
O          4.67327        10.11502        -0.89232
H          5.42929         9.67659        -1.33844
O          4.86736         5.56703         2.67778
H          5.76501         5.32290         2.98842
O         35.94365         1.66075        -1.86430
H         35.34207         2.28455        -2.34202
O         22.52302         5.98603         0.96941
H         21.83813         5.53237         1.51935
O         27.28555        14.52565        -3.16343
H         26.68474        13.89923        -3.62286
O         15.82046        19.48283        -2.71528
H         15.83048        18.58037        -3.11640
O         39.53109         3.54888         3.66711
H         38.67437         3.07342         3.62788
O         39.72525        14.60152        -0.81729
H         40.61137        14.23331        -1.01811
O         34.15781         8.65254         1.19213
H         33.93394         7.75197         1.51250
O         11.51677        11.83593         1.83602
H         10.73958        11.36850         2.27284
O         15.77839        16.58116        -2.95684
H         14.99166        16.07847        -3.26131
O         33.45931        16.72658        -2.05961
H         34.33809        16.36241        -2.30147
O         25.95023         7.97512         0.57471
H         25.19625         7.48165         0.96506
O         23.12174         5.93045        -2.66933
H         22.21121         6.24809        -2.90086
O         22.33081        16.76911         1.02666
H         22.09460        15.82973         1.18551
H          0.30342         1.48084         0.42550
H          0.28141         3.94696         0.50096
H          2.44790         0.22052         0.39543
H          0.38037         5.80815        -0.16279
H          0.25679         8.24220         0.08954
H          0.15300        10.28441         0.74317
H          0.22262        12.68814         0.69833
H          0.27562        14.60657         0.93736
H          0.28009        17.00658         0.69699
H          1.55689        19.20079         0.80818
H          4.91668         0.22220         0.44501
H          3.71115        20.41728         0.75102
H          7.39545         0.23990         0.40717
H          6.18341        20.41639         0.56869
H          9.84969         0.26125         0.35371
H          8.64061        20.38946         0.21708
H         12.31177         0.26808         0.24378
H         11.07797        20.35699        -0.06465
H         14.75744         0.26522         0.03071
H         13.48652        20.34344        -0.51387
H         17.24860         0.29420        -0.10412
H         15.93477        20.32108        -0.82303
H         19.68286         0.28416        -0.26402
H         18.39053        20.29030        -0.64122
H         22.14038         0.24772        -0.59638
H         20.77121        20.28136        -0.28574
H         24.61764         0.22758        -0.67916
H         23.01015        20.35008         0.45696
H         27.08085         0.22525        -0.53199
H         25.86617        19.76006         1.10348
H         29.52681         0.30615        -0.03251
H         28.14049        20.08376         0.48867
H         32.11133         0.33928         0.13114
H         30.60279        20.21421         0.39391
H         34.57518         0.27697        -0.13924
H         33.08023        20.28278         0.44585
H         37.17467         0.27371         0.10322
H         35.47712        20.29971         0.88306
H         39.37736         0.32677         1.12544
H         37.86801        20.33068         1.37947
H         41.15310         1.55719         2.29925
H         42.28941         3.74155         2.73603
H         42.42095         6.14162         2.31820
H         42.11996         8.08369         2.86197
H         42.33959        10.46281         2.47626
H         42.53039        12.33451         2.03690
H         42.40519        14.74873         2.39179
H         42.53114        16.71835         2.07915
H         40.26940        20.38648         1.91961
H         42.40856        19.17326         2.31961
