         477
 CSIRO Nanostructure Databank - Neutral Graphene Oxide Data Set
C         28.00827        27.37449        -1.57866
C         27.99619        28.79472        -1.52358
C         26.80154        29.52547        -1.75075
C         28.00612        31.61999        -1.43109
C         26.81174        30.90207        -1.69748
C         27.97916        33.10303        -1.47873
C         26.74252        33.85082        -1.24952
C         27.96665        35.92907        -0.77596
C         26.76190        35.19719        -1.00149
C         27.81457        37.36109        -0.30310
C         26.96775        38.21290        -1.23839
C         27.80430        40.21057        -0.04717
C         26.95313        39.54574        -1.11081
C         27.88872        41.72105        -0.16226
C         26.64932        42.46286        -0.24018
C         27.82609        44.61798        -0.20859
C         26.61725        43.81510        -0.40493
C         27.94714        45.99925        -0.69463
C         30.36043        27.34259        -0.93281
C         29.14886        26.67143        -1.27004
C         30.39568        28.74415        -1.00614
C         29.20746        29.49310        -1.24507
C         30.42962        31.63848        -0.81567
C         29.21228        30.92729        -1.19964
C         30.42756        33.02435        -0.72514
C         29.28886        33.85052        -1.15624
C         30.36713        35.94325        -0.26083
C         29.20052        35.26576        -0.72480
C         30.32461        37.33483        -0.00555
C         29.13680        38.06300        -0.07449
C         30.33414        40.20602        -0.12690
C         29.15553        39.51038        -0.02836
C         30.36143        41.64365        -0.56681
C         29.09399        42.37536        -0.20745
C         30.41540        44.53626        -0.37238
C         29.15545        43.83185        -0.09209
C         30.41703        45.93741        -0.53540
C         29.15219        46.62019        -0.76384
C         32.23965        24.66199         0.87644
C         31.28307        25.28314         0.08876
C         32.73588        27.23251        -0.10202
C         31.49409        26.59982        -0.37051
C         32.90718        28.65480        -0.43185
C         31.67601        29.45820        -0.85316
C         32.80983        31.49821        -0.04033
C         31.65800        30.89682        -0.55541
C         32.71061        32.92254         0.36802
C         31.65134        33.72717        -0.30730
C         32.78646        35.85989         0.58549
C         31.64286        35.20922        -0.12229
C         32.89557        37.32894         0.23116
C         31.56385        38.08854         0.41763
C         32.83398        40.23807         0.28857
C         31.64612        39.46736        -0.25880
C         32.82298        41.67166         0.14542
C         31.62773        42.37783        -0.18421
C         32.87205        44.51004        -0.26313
C         31.63764        43.79385        -0.28536
C         32.89704        45.92563        -0.46554
C         31.66014        46.64237        -0.58098
C         32.89330        48.75744        -0.67865
C         31.72076        48.08591        -0.56787
C         35.42266        22.75395         1.24574
C         35.38899        24.12764         1.38456
C         33.45188        25.31025         1.13311
C         35.13290        27.18012         0.69770
C         33.79163        26.56274         0.58252
C         35.18746        28.58611         0.55591
C         34.03996        29.36173         0.18999
C         35.18909        31.50188         0.74303
C         34.00642        30.76959         0.29183
C         35.15833        32.90190         0.99613
C         33.86686        33.64086         1.00938
C         35.06400        35.84958         1.53568
C         33.85038        35.14524         1.04487
C         35.06436        37.40262         1.68950
C         33.95930        38.12373         0.93688
C         35.17875        40.29368         1.20163
C         33.94581        39.52219         0.83190
C         35.17276        41.82753         1.07931
C         34.01387        42.42331         0.33762
C         35.32176        44.51874         0.03893
C         34.07563        43.80680         0.03070
C         35.36007        45.92380        -0.25436
C         34.14273        46.61229        -0.50744
C         35.42905        48.79404        -0.61809
C         34.17681        48.03780        -1.00613
C         35.48127        50.20534        -0.80082
C         37.76965        22.82212         0.61024
C         36.58737        22.12064         0.74676
C         37.81669        24.29295         1.01247
C         36.45830        24.99634         0.97829
C         37.66936        27.11584         0.91132
C         36.35494        26.38657         0.83398
C         37.68043        28.60564         1.01797
C         36.48760        29.34803         0.45717
C         37.62412        31.53171         1.08388
C         36.42863        30.82065         0.83514
C         37.61063        32.94367         1.18908
C         36.36544        33.60350         1.15147
C         37.59196        35.81044         1.10761
C         36.34918        35.06072         1.43900
C         37.34961        37.18336         0.69726
C         36.35335        38.00342         1.13494
C         37.73671        40.23969         0.70635
C         36.46737        39.49870         1.18183
C         37.70766        41.71366         1.07759
C         36.48833        42.44405         0.64838
C         37.82447        44.44044         0.03751
C         36.52728        43.77883         0.30031
C         37.86984        45.93947        -0.19215
C         36.59347        46.66115        -0.22023
C         37.87427        48.78612        -0.16668
C         36.62346        48.08602        -0.30426
C         37.87776        50.29693        -0.07643
C         36.62073        50.92768        -0.59196
C         40.37205        20.12901         0.19541
C         39.14194        20.72921         0.36989
C         40.21619        22.91504         0.22439
C         39.02718        22.14424         0.40457
C         40.03199        24.28090        -0.20144
C         38.90655        25.06935         0.27014
C         40.14430        27.26932         0.12007
C         38.91811        26.43832         0.46293
C         40.09247        28.74330         0.47569
C         38.95465        29.35570         0.85450
C         40.20881        31.57474         1.20632
C         38.91140        30.79651         1.22590
C         40.13163        33.05154         1.00625
C         38.86705        33.74365         1.59929
C         40.16228        35.95637         1.46941
C         38.83274        35.22264         1.17489
C         40.32269        37.43602         1.14597
C         39.24704        38.29354         0.67690
C         40.24292        40.23364         1.72720
C         39.04360        39.57112         1.07199
C         40.29068        41.75687         1.50697
C         38.99225        42.46475         1.22223
C         40.38101        44.52915         0.39903
C         39.09022        43.75543         0.45900
C         40.34639        45.99459         0.22075
C         39.14004        46.66869         0.03010
C         40.35377        48.82570         0.04928
C         39.11025        48.10730         0.00180
C         40.36890        50.22250        -0.32226
C         39.15646        50.89649        -0.62720
C         40.43468        52.61317        -1.76528
C         39.20922        52.11009        -1.31718
C         42.83953        20.22142         0.01609
C         41.57222        20.88843         0.22473
C         42.75345        23.01486         0.72696
C         41.50759        22.29723         0.32071
C         42.81642        24.50976         0.69561
C         41.65606        25.28084         1.23815
C         42.64049        27.34192         0.11488
C         41.47324        26.75633         0.88368
C         42.62657        28.81664         0.15510
C         41.31882        29.55101         0.09859
C         42.62670        31.64864         0.64661
C         41.42573        30.92470         0.69520
C         42.68622        33.03478         0.81867
C         41.42750        33.79901         0.75350
C         42.73415        35.80084         1.61225
C         41.46680        35.31261         0.84452
C         42.74677        37.32923         1.70156
C         41.49551        38.06606         1.41527
C         42.79449        40.27703         1.48008
C         41.49441        39.55453         1.08670
C         42.81221        41.68829         0.87628
C         41.58087        42.47470         1.26958
C         42.81003        44.58588         0.84777
C         41.62680        43.90908         0.88763
C         42.80665        46.02154         0.61760
C         41.58547        46.70899         0.35479
C         42.85132        48.82046         0.20508
C         41.59718        48.13105         0.20568
C         42.83888        50.33249         0.15476
C         41.61138        50.85395        -0.56595
C         42.91903        52.42393        -1.93945
C         41.64345        52.00661        -1.37842
C         44.02357        20.88044         0.07349
C         45.37553        23.02707         0.62242
C         44.08112        22.24253         0.62414
C         45.30566        24.54263         0.56549
C         43.98372        25.19398         0.44403
C         45.22979        27.45384         0.00545
C         43.94464        26.61319         0.00669
C         44.95616        28.84588        -0.54361
C         43.78638        29.51753        -0.06365
C         45.05214        31.74109        -0.10424
C         43.95700        30.89217         0.55068
C         45.09331        33.08411         0.14279
C         44.04634        33.69589         1.05750
C         45.14772        35.93144         0.68310
C         43.98411        35.20363         0.96213
C         45.21574        37.30707         1.03446
C         44.03719        38.05636         1.50731
C         45.29412        40.28093         1.31004
C         44.02823        39.49601         1.01141
C         45.28593        41.69367         1.18762
C         44.09963        42.41131         1.13320
C         45.32552        44.59025         1.31821
C         44.13751        43.86100         0.72898
C         45.22286        46.06564         1.30166
C         44.01833        46.73014         0.73286
C         45.34749        48.79868         0.28654
C         44.05317        48.12941         0.46326
C         45.39550        50.10197        -0.25986
C         44.18509        51.02742        -0.29023
C         44.07472        51.83251        -1.56821
C         47.80285        23.14127         0.07640
C         46.65970        22.43353         0.15251
C         47.86466        24.59561         0.51000
C         46.54150        25.24634         0.05866
C         47.80620        27.36211        -0.52774
C         46.48277        26.65941        -0.43121
C         47.89829        28.62379        -1.08820
C         45.92968        29.68672        -1.09890
C         47.44240        31.70391        -0.80681
C         46.08568        31.05749        -0.82780
C         47.41747        33.21393        -0.94647
C         46.10521        33.95712        -0.57461
C         47.57062        35.93216         0.08108
C         46.35456        35.27774         0.14302
C         47.63136        37.39375         0.36792
C         46.47322        38.00864         1.06092
C         47.80463        40.27955         1.06610
C         46.54299        39.55243         1.33050
C         47.82111        41.68016         1.22434
C         46.56586        42.47187         0.95282
C         47.78410        44.56941         1.80730
C         46.49660        43.89766         1.50394
C         47.82918        46.09347         1.53365
C         46.54396        46.83188         1.26502
C         47.80079        48.61231         0.05492
C         46.56433        48.09646         0.50825
C         47.81085        49.89809        -0.52014
C         46.63906        50.63984        -0.62166
C         50.41216        24.74856         0.30480
C         49.11493        25.37077         0.12029
C         50.30983        27.56002        -0.08492
C         49.04076        26.72028        -0.16208
C         50.23976        28.95033        -0.68458
C         48.99671        29.51763        -0.95859
C         50.01696        31.81080        -1.13871
C         48.78968        31.00205        -0.91132
C         50.01518        33.17807        -1.02086
C         48.73386        33.93639        -0.92062
C         50.02629        35.98547        -0.37218
C         48.80302        35.33288        -0.41913
C         50.16957        37.31277         0.36302
C         48.91323        38.14757         0.32574
C         50.20934        40.25462         0.72185
C         48.99341        39.56463         0.79634
C         50.25739        41.63599         1.06069
C         49.05318        42.34571         1.29510
C         50.36510        44.47283         1.66132
C         49.06967        43.71167         1.93853
C         50.35852        46.02266         1.27556
C         49.07708        46.68607         1.01921
C         50.26565        48.32157        -0.33266
C         49.04544        47.84863         0.24326
C         51.57632        25.39217         0.03152
C         52.78620        27.58793        -0.77998
C         51.55503        26.78712        -0.48227
C         52.67285        29.06734        -0.99380
C         51.41943        29.69075        -0.94232
C         52.51505        31.87513        -1.55599
C         51.25168        31.05713        -1.57035
C         52.44157        33.27806        -1.51989
C         51.24206        33.94128        -1.15894
C         52.48453        36.03396        -0.70789
C         51.25882        35.34260        -0.81412
C         52.53389        37.42175        -0.34435
C         51.39567        38.10790         0.00267
C         52.73025        40.20253         0.55272
C         51.41441        39.61831         0.07347
C         52.74081        41.56433         0.93389
C         51.53785        42.31686         1.09424
C         52.79483        44.45324         1.21055
C         51.57536        43.72723         1.31560
C         52.81306        45.83061         0.87973
C         51.58197        46.52711         0.66004
C         51.47613        47.68459        -0.14574
C         55.22498        27.78453        -0.88157
C         54.15106        27.07989        -0.49857
C         55.08667        29.01798        -1.74811
C         53.81261        29.78567        -1.44690
C         54.96641        31.90647        -2.09593
C         53.74286        31.17144        -1.68553
C         54.89602        33.40615        -2.22120
C         53.60640        34.16001        -1.92451
C         54.95487        36.19809        -1.35738
C         53.80181        35.30589        -0.92203
C         54.98763        37.52718        -0.95936
C         53.90239        37.99582        -0.01293
C         55.16290        40.16075         0.22109
C         53.91967        39.48966         0.26755
C         55.31691        41.48144         0.85857
C         54.02714        42.21353         1.26761
C         55.36546        44.44134         1.07151
C         54.06227        43.71061         1.37351
C         55.26315        45.82907         0.59557
C         54.07245        46.47386         0.55378
C         56.31442        29.89030        -1.69113
C         56.26074        31.21342        -1.88891
C         56.11535        34.23254        -2.27482
C         56.09871        35.55025        -1.95089
C         56.12395        38.36814        -1.15423
C         56.22530        39.59946        -0.54703
C         56.52321        42.30102         0.58682
C         56.54354        43.64272         0.67270
O         41.03675        42.35980         2.62526
O         43.03113        26.73974        -1.15821
O         48.08545        38.07662        -0.87826
O         46.35824        25.54627        -1.36903
O         44.39518        30.50010         1.80263
O         54.18416        37.31339         1.21337
O         39.94539        43.64351        -0.72096
O         46.73952        38.56324         2.39732
O         47.95460        33.74439        -2.19353
O         41.00734        24.82556         2.17667
O         35.87895        39.94681         2.43965
O         43.52968        37.80434         2.86798
O         40.49963        33.39867        -0.35266
O         44.46859        52.07293         0.62536
O         52.03412        26.88549        -1.86123
O         32.15322        34.60900        -1.40400
O         28.46961        44.37874         1.08169
O         37.92318        44.96631        -1.31311
O         48.18569        31.33788         0.41423
O         45.69737        46.83094         2.45042
O         45.48077        23.83767         1.83411
O         38.88178        33.68211         2.98652
O         50.57496        45.51604         2.62830
O         54.78673        32.55263        -3.41786
O         28.84670        33.63598        -2.53322
O         34.29315        24.67418         2.04958
O         38.10277        42.28908         2.37318
O         54.83579        41.51672         2.24364
O         54.90433        44.22612         2.44488
O         43.36617        22.37724         1.88832
O         47.81480        45.54438         2.88411
O         35.70192        35.29107         2.73702
O         32.69367        29.03664        -1.83320
O         46.66247        42.65781        -0.46679
O         39.64834        31.07325         2.45888
O         32.79136        33.06503         1.82887
O         46.87755        29.08280        -1.91665
O         38.31223        37.70099        -0.18248
O         37.65442        27.82967         2.23861
O         50.51428        27.81199         1.34616
H         49.67767        28.15827         1.72392
O         45.50596        27.73187         1.41392
H         45.10774        28.61179         1.66882
O         31.84213        39.35084        -1.69999
H         32.58866        38.71156        -1.84668
O         34.22481        47.95061        -2.48673
H         33.45291        47.41668        -2.77237
O         47.94555        24.63953         1.95513
H         47.12701        24.22533         2.32576
O         34.86667        37.67304         3.08382
H         35.43734        37.04777         3.58590
O         35.00716        42.33625         2.44522
H         35.57151        41.76506         3.02072
O         37.62812        40.28706        -0.74457
H         37.90328        39.40523        -1.08842
O         40.87125        24.67609        -1.14827
H         40.71872        25.61561        -1.46508
O         42.87915        40.43563         2.90189
H         43.02128        39.54077         3.29927
O         31.42249        38.36783         1.83104
H         31.50082        37.52888         2.33129
O         41.60762        35.81428        -0.49780
H         41.06856        35.24018        -1.08672
O         41.09845        29.76570        -1.37862
H         41.86516        30.27235        -1.72707
O         44.47598        33.38879         2.41013
H         43.81921        33.80110         3.02304
O         41.30006        39.64942        -0.33849
H         42.10185        39.28119        -0.77830
O         50.32696        36.96613         1.77952
H         51.25898        36.69255         1.92603
O         49.14749        43.38633         3.35502
H         49.10441        44.24376         3.83923
O         38.23764        24.27225         2.40545
H         38.30457        25.19686         2.72711
O         54.18135        34.77246         0.36758
H         54.28881        35.59504         0.94614
O         40.19360        39.97825         3.12948
H         40.76190        40.65637         3.56582
O         51.33997        40.06953        -1.33556
H         50.46305        39.79857        -1.68554
O         27.11198        37.26370         0.97131
H         26.96543        38.19404         1.28680
O         33.29701        37.28094        -1.18552
H         32.91950        36.46635        -1.59298
O         42.67969        35.27013         2.95476
H         42.99037        35.97990         3.56242
O         36.79601        29.34755        -0.98575
H         36.03267        29.74693        -1.45689
O         44.01977        39.34847        -0.43558
H         43.87593        40.25517        -0.82193
O         42.78459        41.62802        -0.58548
H         43.17238        42.48476        -0.92450
O         42.64675        50.71270         1.54400
H         43.28891        51.47302         1.67702
O         40.31737        27.19310        -1.31418
H         40.70586        28.05549        -1.63206
O         37.91631        50.58265         1.37550
H         37.07594        50.25774         1.76293
O         27.14846        39.96311         1.24104
H         27.67814        40.40772         1.93664
O         51.01072        30.76500        -3.00311
H         51.04923        31.61647        -3.48973
O         30.38416        41.61327        -2.03946
H         30.99635        40.87700        -2.29386
O         41.45231        27.42815         2.15502
H         41.07947        26.80795         2.82219
O         45.47271        34.32966        -1.82935
H         46.20294        34.57179        -2.44735
O         54.97030        28.54635        -3.12475
H         54.14235        28.02277        -3.18806
O         44.34183        43.82927        -0.73470
H         45.26557        43.41147        -0.86526
O         53.21607        34.79279        -3.17238
H         53.40374        34.14684        -3.88938
O         40.23374        35.90430         2.90166
H         39.78506        35.06338         3.22804
H         27.08398        26.84200        -1.84410
H         25.87206        28.98359        -1.97502
H         25.88231        31.45253        -1.89502
H         25.78357        33.31490        -1.22520
H         25.80908        35.72608        -0.85629
H         26.34739        37.71603        -2.00022
H         26.33200        40.17153        -1.76939
H         25.71568        41.88570        -0.30842
H         25.67704        44.32451        -0.66316
H         27.03432        46.52798        -1.00756
H         29.11702        25.57473        -1.30271
H         29.18426        47.66619        -1.10019
H         32.05017        23.67858         1.32465
H         30.33191        24.76862        -0.09278
H         32.88563        49.85569        -0.63710
H         30.79280        48.65354        -0.40917
H         34.55884        22.15340         1.55588
H         34.58086        50.73129        -1.14818
H         36.55116        21.04040         0.55081
H         36.59121        52.02030        -0.70240
H         40.44146        19.03464         0.11618
H         38.24673        20.10058         0.46109
H         40.45817        53.51114        -2.39889
H         38.28755        52.64997        -1.57268
H         42.81244        19.16613        -0.29244
H         42.90283        53.15450        -2.76290
H         44.95177        20.37275        -0.22231
H         45.01473        52.14201        -2.04948
H         48.71895        22.64259        -0.27509
H         46.65913        21.37666        -0.15287
H         48.75287        50.36121        -0.84106
H         46.69565        51.67264        -0.99019
H         50.43963        23.70315         0.64515
H         50.24899        49.21550        -0.96857
H         52.53425        24.85545         0.09266
H         52.36768        48.09111        -0.64153
H         56.23857        27.41411        -0.66366
H         54.26524        26.13582         0.05531
H         56.17956        46.33465         0.25700
H         54.04970        47.52309         0.22928
H         57.28544        29.39341        -1.54205
H         57.18401        31.81097        -1.89544
H         57.02334        33.78496        -2.70306
H         57.01888        36.13246        -2.10105
H         56.96942        38.01835        -1.76369
H         57.15433        40.16853        -0.68315
H         57.44389        41.78352         0.28207
H         57.46406        44.19129         0.42030
