         661
 CSIRO Nanostructure Databank - Neutral Graphene Oxide Data Set
C          6.00611        31.81317        -0.39308
C          5.92811        33.15828        -0.58380
C          8.73744        28.05776         1.28053
C          8.65763        29.27326         0.55983
C          7.38981        29.84532         0.23495
C          8.46934        31.85897        -0.63920
C          7.29536        31.14112        -0.28644
C          8.31935        33.19595        -1.33844
C          7.11848        33.94826        -0.82216
C          8.37998        36.05967        -0.80955
C          7.15537        35.30476        -0.66443
C          8.38832        37.43417        -0.71146
C         11.26393        23.91415         1.98227
C         11.23171        25.27167         1.59848
C         10.04683        26.02734         1.77349
C         11.16098        28.11731         0.98879
C         10.03519        27.52864         1.83371
C         11.13936        29.63201         0.84357
C          9.82407        30.04617         0.24575
C         10.96315        31.93809        -0.88503
C          9.74197        31.30112        -0.38153
C         10.83892        33.21942        -1.69246
C          9.60440        33.98619        -1.29237
C         10.87572        36.08620        -1.05414
C          9.62815        35.34267        -1.06141
C         10.86286        37.48041        -0.90098
C          9.60539        38.18852        -0.81353
C         10.78998        40.32605        -0.97296
C          9.59008        39.57959        -0.81436
C         10.77412        41.73111        -0.98104
C         13.68872        19.55289         2.38491
C         13.61752        20.94023         2.07784
C         12.56766        21.76724         2.45278
C         13.61453        23.68972         1.20161
C         12.59704        23.27122         2.27460
C         13.67048        25.19541         1.00950
C         12.46445        25.91165         1.15887
C         13.60671        27.96117         0.13313
C         12.37785        27.30703         0.69877
C         13.68967        29.45911         0.08755
C         12.39083        30.21785         0.14822
C         13.26293        31.78291        -1.79659
C         12.20546        31.38390        -0.75198
C         13.32384        33.32659        -1.84470
C         12.12724        34.01002        -1.58134
C         13.37330        36.07550        -1.14240
C         12.12672        35.39494        -1.28627
C         13.36772        37.46698        -0.52968
C         12.09543        38.23160        -0.88803
C         13.28843        40.42341        -1.10365
C         12.04850        39.60777        -0.99407
C         13.09067        41.74030        -1.86999
C         11.93660        42.50198        -1.25440
C         13.15399        44.67375        -1.22104
C         11.97269        43.86916        -1.06599
C         13.16556        45.97602        -0.80172
C         16.09400        15.23098         2.71217
C         16.05941        16.61751         2.33964
C         14.89484        17.39144         2.52772
C         15.94895        19.26757         1.37303
C         14.82578        18.73890         2.09477
C         15.92476        20.68082         0.96053
C         14.75851        21.52907         1.32523
C         16.08873        23.53694         0.57779
C         14.97996        23.01820         1.47608
C         16.09431        25.01037         0.40260
C         14.84769        25.77978         0.51280
C         16.07133        27.80953        -0.57170
C         14.84246        27.14102        -0.06182
C         16.00184        29.12055        -1.02038
C         14.94707        30.09676        -0.52563
C         15.66733        31.47648        -2.37330
C         14.61968        31.12730        -1.58021
C         15.69126        33.53612        -2.62875
C         14.51574        34.09278        -1.99772
C         15.94569        35.97686        -1.17072
C         14.55512        35.42721        -1.50354
C         15.95134        37.51842        -1.11976
C         14.67452        38.24295        -0.78730
C         15.79601        40.37114        -1.66366
C         14.60771        39.71842        -1.07734
C         15.68989        41.80774        -1.99135
C         14.39062        42.54795        -2.01804
C         15.62833        44.54982        -1.00877
C         14.42582        44.08761        -1.81728
C         15.49637        45.72723        -0.10810
C         14.46665        46.74001        -0.70186
C         15.55402        48.48535         0.75534
C         14.39674        47.95934         0.16855
C         15.58052        49.83785         1.23877
C         18.33023        10.83856         2.76210
C         18.26825        12.17906         2.37439
C         17.17725        13.00935         2.71564
C         18.46160        15.00051         1.99479
C         17.18831        14.40002         2.45915
C         18.44278        16.47208         1.57911
C         17.17644        17.20048         1.65812
C         18.17071        19.02172         0.17722
C         17.09215        18.49873         1.12073
C         18.40121        20.52339         0.33870
C         17.23669        21.35795         0.72441
C         18.36463        23.31779        -0.40034
C         17.20290        22.77595         0.29855
C         17.98849        24.56602        -1.12789
C         17.25221        25.61263        -0.34800
C         18.32510        27.51536        -1.52540
C         17.23234        27.00312        -0.86360
C         18.24234        28.86201        -2.09038
C         17.09613        29.69103        -1.74396
C         18.20754        31.76755        -2.60593
C         17.03004        30.99830        -2.25016
C         18.21199        33.20448        -2.75272
C         16.99370        34.01580        -2.53438
C         17.88263        36.27402        -2.70627
C         17.00540        35.42138        -2.10772
C         18.12267        37.64014        -2.34627
C         17.07737        38.28958        -1.72413
C         18.24642        40.41619        -2.18824
C         17.00850        39.72507        -1.82044
C         18.25517        41.89298        -2.03702
C         16.95707        42.59062        -1.83268
C         18.11692        44.51044        -0.69414
C         16.83889        43.70264        -0.82330
C         18.01887        45.67960         0.19354
C         16.81466        46.38021         0.28674
C         17.97391        48.25803         1.49703
C         16.75892        47.69658         0.80635
C         18.01397        49.75948         1.58120
C         16.78974        50.49916         1.55380
C         18.05009        52.54876         2.10007
C         16.84124        51.90082         1.82071
C         18.11103        53.96063         2.34919
C         20.84211         6.83905         4.05398
C         20.80000         8.09481         3.41172
C         19.58588         8.81744         3.30742
C         20.70227        10.58341         2.01320
C         19.52360        10.05909         2.65096
C         20.59202        11.81397         1.23058
C         19.34932        12.71282         1.50894
C         20.63996        14.77062         0.83611
C         19.51116        14.16117         1.41476
C         20.68624        16.14886         0.54009
C         19.54624        16.98571         0.73699
C         20.79622        18.97465        -0.06076
C         19.48877        18.28102         0.24776
C         20.71008        20.32772        -0.75257
C         19.50452        21.15251        -0.46431
C         20.79992        23.24630        -1.09085
C         19.54706        22.63069        -0.62483
C         20.91513        24.65851        -1.24334
C         19.94607        25.69675        -0.76323
C         20.82751        27.56257        -2.02116
C         19.57350        26.72889        -1.83485
C         20.77522        28.84271        -2.46051
C         19.47747        29.56691        -2.62231
C         20.70031        31.72223        -2.59699
C         19.46930        31.05523        -2.62784
C         20.74123        33.15233        -2.56025
C         19.51219        33.84112        -2.79913
C         20.78605        36.00134        -2.79155
C         19.68391        35.21460        -3.12860
C         20.71855        37.49530        -2.91517
C         19.39798        38.30429        -2.72942
C         20.69657        40.59552        -2.63000
C         19.42861        39.76023        -2.41891
C         20.69283        41.82489        -1.70661
C         19.50823        42.47533        -1.50834
C         20.65402        44.37963        -0.30208
C         19.43796        43.84209        -0.94240
C         20.57975        45.59695         0.39693
C         19.26009        46.14782         0.91133
C         20.49832        48.25696         1.54239
C         19.26345        47.68679         0.89244
C         20.45714        49.59981         1.97331
C         19.22894        50.37415         1.90637
C         20.49100        52.39831         2.52969
C         19.27189        51.78135         2.16241
C         20.63365        53.89696         2.42458
C         19.31290        54.63420         2.54586
C         20.68051        56.66199         2.62203
C         19.41650        56.04246         2.49745
C         20.96976        57.78765         1.84640
C         23.31372         4.17540         4.93209
C         22.10947         4.85483         4.82163
C         23.24947         6.68737         3.62843
C         22.04975         6.12680         4.17793
C         23.20708         7.93496         2.96776
C         22.00498         8.65896         2.86603
C         23.16702        10.52767         1.71588
C         21.95896         9.93777         2.17930
C         23.16371        11.71042         0.76297
C         21.83875        12.47285         0.69319
C         23.12746        14.70435         0.47000
C         21.83528        13.95992         0.46672
C         23.12653        16.03654         0.08838
C         21.79481        16.57492        -0.40295
C         23.12863        18.76864        -1.01937
C         21.83527        18.07324        -0.71292
C         23.13460        20.25747        -1.16696
C         21.98933        21.01111        -1.09589
C         23.17163        23.10037        -1.76692
C         21.97227        22.46057        -1.34326
C         23.20735        24.48919        -2.00808
C         22.07507        25.29121        -1.72074
C         23.20668        27.27630        -2.78677
C         22.14563        26.83801        -1.76190
C         23.26735        28.78593        -3.04060
C         21.91959        29.51436        -3.18264
C         23.26470        31.75294        -2.71782
C         21.97589        31.01805        -2.90933
C         23.21678        33.12172        -2.04266
C         21.96064        33.89097        -2.40399
C         23.23956        36.04909        -2.27666
C         21.99355        35.30633        -2.43908
C         23.26346        37.46611        -2.32385
C         22.03182        38.24197        -2.71685
C         23.25156        40.47942        -2.10600
C         22.00081        39.75988        -2.57541
C         23.13524        41.74616        -1.34482
C         21.92721        42.40309        -1.17771
C         23.07379        44.28788         0.03319
C         21.86934        43.67594        -0.46695
C         22.99223        45.54724         0.72966
C         21.76413        46.19778         0.91690
C         22.86065        48.13281         2.10172
C         21.69780        47.52073         1.55334
C         22.83251        49.45529         2.55579
C         21.63844        50.21317         2.46247
C         22.83539        52.24926         3.23784
C         21.63388        51.61885         2.76907
C         22.78111        53.64975         3.64238
C         21.74484        54.48639         3.26879
C         23.06406        56.70339         3.49296
C         21.69822        56.00063         3.54135
C         23.29095        58.01509         2.77345
C         22.27777        58.30803         1.69803
C         23.98675        59.49549         0.41036
C         22.62864        59.14207         0.64203
C         24.50229         4.72948         4.43307
C         25.70746         6.59995         3.36913
C         24.49914         5.98131         3.78399
C         25.71734         7.86114         2.74143
C         24.41865         8.42299         2.24414
C         25.63389        10.55288         1.76721
C         24.42241         9.89129         1.95889
C         25.64445        11.92423         1.22708
C         24.36327        12.61904         0.98246
C         25.52798        14.81659         1.10689
C         24.33104        13.98647         0.82858
C         25.50907        16.30620         0.69470
C         24.32121        16.83636         0.01106
C         25.62939        18.82943        -0.61057
C         24.39302        18.09014        -0.61426
C         25.69423        20.14926        -1.30952
C         24.39629        20.83528        -1.67493
C         25.71947        22.91203        -2.39139
C         24.31576        22.23016        -2.28790
C         25.74339        24.41497        -2.58366
C         24.51404        25.18162        -2.22703
C         25.82470        27.38988        -2.60532
C         24.54496        26.66903        -2.38075
C         25.82813        28.80298        -2.63819
C         24.56023        29.53392        -2.91382
C         25.72587        31.68449        -2.57236
C         24.55610        31.00409        -2.67728
C         25.71011        33.17277        -2.58328
C         24.47834        33.91268        -2.30101
C         25.75232        36.02512        -2.10983
C         24.48900        35.30988        -2.23264
C         25.72114        37.45571        -1.91536
C         24.48736        38.16065        -2.09791
C         25.72098        40.25183        -1.38087
C         24.52812        39.63690        -1.98660
C         25.65883        41.71700        -1.17234
C         24.35345        42.22266        -0.58585
C         25.55466        44.42391         0.07866
C         24.31473        43.67760        -0.20201
C         25.52072        45.57618         1.00888
C         24.19598        46.06423         1.41308
C         25.39143        48.12933         2.36076
C         24.13113        47.37847         2.16271
C         25.34467        49.44397         2.84379
C         24.02544        50.02752         3.28474
C         25.25847        52.20748         3.63708
C         24.03017        51.53625         3.34204
C         25.21047        53.57532         4.10007
C         23.95927        54.11487         4.33576
C         25.48786        56.82174         4.33450
C         24.06585        56.32393         4.31089
C         25.74877        57.64409         3.09122
C         24.73962        58.15736         2.32952
C         25.00709        58.99003         1.18316
C         26.90303         8.55969         2.52524
C         28.08403        10.67026         2.14515
C         26.90921         9.93220         2.09906
C         28.04452        12.17081         2.18094
C         26.90747        12.72634         1.35447
C         28.00008        14.94788         1.31302
C         26.83380        14.19760         1.27979
C         27.97997        16.31366         0.87344
C         26.80714        16.94979         0.47483
C         28.05441        19.01867        -0.12226
C         26.81404        18.25209        -0.14143
C         28.06030        20.38714        -0.64099
C         26.94314        20.95685        -1.24777
C         28.14412        23.04774        -1.76858
C         26.97668        22.29521        -1.84563
C         28.29840        24.43941        -2.27486
C         27.03162        25.19773        -2.60645
C         28.25820        27.37917        -2.38684
C         27.03203        26.67785        -2.50880
C         28.24920        28.80504        -2.39020
C         27.03531        29.51061        -2.57519
C         28.25879        31.71537        -2.27719
C         27.05257        30.99917        -2.86206
C         28.26430        33.11099        -2.15474
C         27.04466        33.90941        -2.43314
C         28.22071        36.01520        -1.80057
C         26.98210        35.33683        -2.06603
C         28.19437        37.45062        -1.57953
C         26.94294        38.14584        -1.62146
C         28.15195        40.26220        -0.97097
C         26.92718        39.56602        -1.34016
C         28.16504        41.64856        -0.70628
C         26.93635        42.44716        -0.88178
C         28.09071        44.32265         0.42401
C         26.88077        43.81516        -0.25435
C         27.99168        45.48276         1.38690
C         26.66931        46.20658         1.42695
C         27.84381        48.20723         2.36292
C         26.63598        47.50313         2.08249
C         27.79498        49.52954         2.86366
C         26.54019        50.16469         3.08143
C         27.71425        52.23596         3.83926
C         26.49046        51.53190         3.53757
C         27.66970        53.58400         4.23923
C         26.44900        54.33001         4.31845
C         26.52884        55.71526         4.43891
C         29.31856        12.89749         1.86928
C         30.46025        15.04471         1.62033
C         29.29194        14.27571         1.59222
C         30.36248        16.54406         1.58794
C         29.30218        16.96894         0.57223
C         30.38835        19.31983         0.76770
C         29.19632        18.46186         0.40987
C         30.49364        20.48376        -0.18730
C         29.34253        21.05579        -0.68803
C         30.63800        23.20725        -1.17242
C         29.33513        22.47536        -1.10985
C         30.73587        24.58233        -1.70324
C         29.51367        25.25598        -2.02918
C         30.72073        27.39714        -2.06284
C         29.50031        26.64986        -2.21829
C         30.68920        28.78332        -1.97325
C         29.47495        29.54262        -2.15946
C         30.76426        31.69056        -2.02906
C         29.45071        30.95132        -2.07653
C         30.68633        33.15466        -1.66728
C         29.46800        33.83919        -1.80155
C         30.70838        35.99043        -1.65149
C         29.42487        35.27964        -1.72280
C         30.68718        37.50170        -1.39558
C         29.38343        38.15580        -1.26155
C         30.56705        40.19366        -0.44789
C         29.37406        39.53561        -0.88719
C         30.51945        41.54254        -0.03982
C         29.32932        42.28045        -0.20111
C         30.54446        44.34902         0.60169
C         29.27116        43.65197         0.29395
C         30.50512        45.81856         1.06266
C         29.19717        46.38545         1.42188
C         30.36315        48.31738         2.40392
C         29.13513        47.60451         2.06045
C         30.26778        49.61193         2.95430
C         29.02155        50.24844         3.16286
C         28.95237        51.56113         3.66360
C         31.66350        17.25883         1.33229
C         32.96509        19.35149         1.06227
C         31.68106        18.55245         0.96467
C         33.06397        20.50887         0.08687
C         31.82168        21.02166        -0.54450
C         33.16825        23.13002        -1.14357
C         31.89516        22.40929        -1.14255
C         33.18930        24.50213        -1.36232
C         31.96027        25.21713        -1.68339
C         33.25267        27.33062        -1.56221
C         32.04186        26.64885        -2.14623
C         33.14919        28.72360        -1.10926
C         31.85903        29.45897        -1.35072
C         33.11295        31.68512        -1.03856
C         31.83086        30.95596        -1.24093
C         33.14752        33.14436        -1.25682
C         31.92541        33.84039        -1.39536
C         33.11354        35.95286        -0.95692
C         31.94343        35.26667        -1.31174
C         33.09121        37.38279        -0.68040
C         31.88501        38.11640        -0.79838
C         33.01658        40.10238         0.04114
C         31.82692        39.46055        -0.36924
C         33.01993        41.58563         0.29122
C         31.66012        42.08979         0.80681
C         32.94792        44.25529         1.25648
C         31.74012        43.59553         0.87025
C         32.90568        45.64895         1.63326
C         31.72012        46.37859         1.69018
C         31.60857        47.66850         2.26927
C         34.24985        21.11784        -0.13201
C         35.62789        23.12444        -0.75188
C         34.42352        22.29412        -1.07784
C         35.64787        24.50407        -0.92066
C         34.44171        25.21140        -1.32164
C         35.76099        27.36006        -1.52183
C         34.44383        26.62758        -1.41606
C         35.71477        28.80484        -1.07983
C         34.41785        29.47474        -0.67549
C         35.66679        31.67732        -1.23656
C         34.38649        30.91791        -1.16745
C         35.63136        33.14259        -1.04195
C         34.37562        33.83254        -1.07159
C         35.55457        35.88814        -0.45820
C         34.35259        35.23851        -0.83350
C         35.49232        37.25722         0.15293
C         34.25978        38.03293        -0.22292
C         35.49767        40.12803         0.34073
C         34.23893        39.40974         0.06904
C         35.47564        41.43374         0.74799
C         34.17096        42.03992         1.19865
C         34.14850        43.53049         1.35818
C         36.83529        25.25157        -0.64208
C         38.11143        27.35053        -0.73142
C         36.93886        26.63729        -0.89760
C         38.20596        28.77042        -1.22724
C         36.88828        29.49737        -1.02970
C         38.09286        31.63717        -0.76455
C         36.92400        30.95210        -0.94302
C         38.15127        33.13245        -0.99863
C         36.81957        33.82479        -0.80147
C         38.01712        35.92275        -0.16390
C         36.78027        35.21128        -0.47570
C         38.00292        37.29923        -0.01490
C         36.77636        38.04436         0.01270
C         36.74331        39.41107         0.15141
C         39.37183        29.54443        -0.66302
C         40.49531        31.66885        -0.09181
C         39.33352        30.90346        -0.51101
C         40.46016        33.02503         0.03842
C         39.28510        33.80754        -0.26349
C         39.22543        35.15102         0.00480
O         26.30933        44.81307        -1.16607
O         13.84021        27.34206        -1.17280
O         19.49118        11.90742         0.29387
O         25.73948        23.52206        -3.72027
O         21.64747        13.02457        -0.64967
O         18.83666        44.79626        -1.93173
O         22.64974        31.71835        -4.03641
O         23.83805        55.22744         5.17873
O         24.04823        46.11337         2.89098
O         19.67283        20.46252        -1.77110
O         13.38266        30.25686         1.27221
O         35.00110        31.16591        -2.46512
O         24.33195         7.77634         0.81182
O         18.56141        28.91581        -3.54990
O         25.25387        15.88794         2.07125
O         26.62636        12.05760         0.09990
O         17.65169        42.74816        -3.08936
O         18.28914        21.01735         1.70539
O         17.91828        24.53468        -2.35141
O         24.22724        40.47232        -3.18736
O         19.82386        25.93737         0.43205
O         14.91078        21.04465        -0.04410
O         30.91095        36.95672        -2.74206
O         25.10300        19.98218        -2.65091
O         14.09310        40.49175         0.10565
O         31.91357        21.21742        -2.01737
O         29.84959        23.25376         0.07454
O         24.68565        26.05147        -1.04378
O         17.30569        25.56246         1.10226
O         22.27189        39.12391        -3.85754
O         15.44288        32.39788        -3.41418
O         27.88262        24.67643        -3.66793
O         15.03602        42.14875        -3.27730
O         26.33927        42.45143        -2.22275
O         32.11446        28.81798        -0.04300
O         26.45357        33.66829        -3.76674
O         22.22812        18.25786        -2.09533
O         11.25212        27.46467        -0.29812
O         24.05306        29.10027        -4.23925
O         32.20005        31.39372         0.09179
O         18.61517        35.80390        -3.80158
O         15.67809        37.98752         0.25114
O         19.95864        37.98875        -4.04604
O         30.71238        45.48969        -0.34034
O         18.94614        16.05149         2.89838
O         23.36075        11.08349        -0.54570
H         22.93893        11.68665        -1.20504
O         10.18554        27.92867         3.23063
H         10.32141        28.90882         3.22867
O         29.87139        16.97216         2.89368
H         30.59913        16.87411         3.54187
O         19.26578        48.11280        -0.48886
H         19.95650        47.61243        -0.97253
O         23.16577        32.82536        -0.60432
H         23.08606        33.67622        -0.12375
O         21.39435        19.26475         1.25234
H         20.68619        19.56390         1.86337
O         14.92035        45.25937         1.16945
H         14.61090        46.05680         1.65531
O         38.44738        28.67755        -2.68811
H         38.52018        29.59584        -3.02726
O          8.01871        32.89502        -2.74043
H          8.85985        32.55736        -3.14037
O         13.09702        23.15576        -0.03457
H         13.78081        23.22697        -0.73291
O         25.67525        57.68916         5.48917
H         25.38003        57.19073         6.27970
O         15.41667        23.24022         2.82978
H         15.52164        24.20369         2.97458
O         21.05851        54.12740         1.02742
H         20.38239        53.71877         0.44538
O         16.67715        43.00515         0.46663
H         16.13654        43.58192         1.05651
O         14.93226        47.16482        -1.99953
H         14.89447        46.38020        -2.60554
O         16.23550        35.48791         0.15685
H         15.83765        36.13629         0.78590
O         14.54652        44.67355        -3.15255
H         15.12304        44.06658        -3.67739
O         24.29379        41.47955         0.71026
H         23.53991        41.84287         1.22415
O         27.69476        12.53096         3.57737
H         28.46144        12.30230         4.14427
O         12.63723        41.35893        -3.19019
H         13.40431        41.46168        -3.80250
O         29.76547        16.46252        -0.71819
H         29.09099        16.68323        -1.39469
O         12.76562        31.28372        -3.06155
H         13.44129        31.49637        -3.74205
O         19.45381        26.09065        -3.12215
H         19.15373        26.77334        -3.76420
O         36.00043        27.38225        -2.96695
H         36.90346        27.77131        -3.10688
O         27.22750        31.10057        -4.31017
H         27.02190        32.03749        -4.55408
O         23.87334        49.59897         4.68838
H         22.98743        49.89081         4.99132
O         21.53528        29.38175        -4.57179
H         22.14738        29.96097        -5.08209
O         38.47031        33.28933        -2.42665
H         37.69383        32.97716        -2.93894
O         13.02174        23.86174         3.54775
H         12.39611        23.56497         4.24128
O         32.31413        26.60299        -3.59890
H         33.21518        26.23286        -3.72451
O         28.04549        44.80066         2.70926
H         27.75368        45.44697         3.38866
O         23.13117         8.21915         0.18077
H         23.38093         9.08200        -0.25223
O         22.55479        27.31169        -0.45708
H         21.95078        26.92854         0.21613
O         20.62406        41.13751        -3.96327
H         20.93817        40.43397        -4.57729
O         30.10924        19.91351         2.08278
H         29.24141        20.36765         2.03110
O         17.63274        18.80321        -1.15580
H         18.26743        19.20202        -1.80054
O         34.43269        29.52690         0.76886
H         33.48795        29.57680         1.05610
O         11.08245        30.23101         2.17543
H         12.01195        30.38368         2.46746
O         34.11371        18.51140         0.96323
H         34.17285        18.17580         0.04541
O         33.26117        42.22294        -0.98722
H         32.58314        41.91233        -1.62329
O         19.20317        45.63421         2.26930
H         18.60628        46.21847         2.79741
O         23.86522        21.99472        -3.64209
H         24.44392        21.30117        -4.03028
O         10.67276        32.86421        -3.10545
H         10.79478        33.68072        -3.63368
O         17.88234        47.82241         2.90514
H         17.08355        48.24212         3.29000
O         13.28552        37.26260         0.90878
H         13.49606        38.11880         1.33983
O         15.67239        30.78815         0.53605
H         14.99799        31.16320         1.14956
O         31.36312        41.59224         2.13727
H         32.21232        41.55241         2.64465
O         34.61846        21.72589        -2.42111
H         33.75773        21.30581        -2.66458
O         21.16895        56.15355         4.88731
H         21.87715        55.86335         5.50533
O         22.83204        26.66158        -4.03443
H         23.12211        27.24918        -4.76649
O         33.95667        41.46906         2.55299
H         34.61900        41.87752         3.14991
O         35.35462        37.00579         1.60277
H         35.29198        37.88082         2.04264
O         21.49814        15.88433        -1.64409
H         21.85626        16.43906        -2.37657
O         31.28436        31.64040        -3.40464
H         30.59271        31.99310        -4.00465
O         23.08139        59.05767         3.78210
H         23.28574        59.91897         3.36091
H          5.09773        31.22727        -0.18970
H          4.95804        33.67346        -0.51409
H          7.80679        27.50878         1.49257
H          6.47217        29.29528         0.49203
H          6.24528        35.84927        -0.36759
H          7.44310        37.97809        -0.56570
H         10.33593        23.42751         2.32395
H          9.13905        25.50096         2.10834
H          8.63185        40.11459        -0.74084
H          9.83026        42.25250        -0.75897
H         12.85554        19.09512         2.94036
H         11.72281        21.33621         3.01551
H         11.07892        44.36536        -0.65446
H         12.24091        46.42331        -0.40127
H         15.17889        14.78644         3.13173
H         14.03074        16.94580         3.04231
H         13.46164        48.54028         0.20559
H         14.65052        50.42358         1.19614
H         17.48638        10.40888         3.32266
H         16.30687        12.56302         3.21984
H         15.90907        52.48421         1.79319
H         17.16997        54.53211         2.35586
H         19.91352         6.40998         4.45858
H         18.67764         8.41124         3.77664
H         18.55505        56.63286         2.14441
H         20.18878        58.15007         1.15745
H         23.34311         3.19522         5.42848
H         21.18620         4.41735         5.22756
H         24.22520        60.13397        -0.45191
H         21.86171        59.45837        -0.08032
H         25.45136         4.18745         4.55210
H         26.66566         6.11978         3.62060
H         26.79645        57.84227         2.81632
H         26.05405        59.21217         0.92928
H         27.85636         8.10463         2.83569
H         29.01904        10.16371         2.43295
H         28.61893        54.11312         4.41554
H         27.54934        56.11762         4.56024
H         30.28432        12.40788         2.07126
H         31.42314        14.56189         1.85143
H         31.19075        50.14881         3.22007
H         29.88674        52.09618         3.89097
H         32.61488        16.74854         1.55712
H         32.97866        19.78908         2.10095
H         33.83058        46.10269         2.01983
H         32.51541        48.17109         2.63751
H         35.15136        20.70317         0.34660
H         36.54739        22.60706        -0.43884
H         36.41798        41.97117         0.93748
H         35.06296        44.04629         1.68947
H         37.71800        24.71155        -0.26637
H         39.01313        26.85794        -0.33680
H         38.95235        37.84260         0.10988
H         37.68378        39.98230         0.19229
H         40.32000        29.00604        -0.50969
H         41.41680        31.11736         0.14635
H         41.34914        33.55888         0.40830
H         40.10412        35.65666         0.43578
