         314
 CSIRO Nanostructure Databank - Neutral Graphene Oxide Data Set
C         30.33705        57.15289        -0.26853
C         30.33483        58.57821        -0.14885
C         29.12447        59.30742        -0.24625
C         30.29939        61.37363         0.25688
C         29.12042        60.68534        -0.03997
C         32.82668        52.85737        -0.34308
C         32.77858        54.23982        -0.02812
C         31.54240        54.97053        -0.12150
C         32.66062        57.07970         0.52835
C         31.46786        56.36392         0.03073
C         32.75166        58.51822         0.21740
C         31.56363        59.30111         0.04932
C         32.71245        61.48655         0.72183
C         31.55859        60.72514         0.27632
C         35.36984        48.63226        -0.79941
C         35.29420        50.03854        -0.84408
C         34.09341        50.75024        -0.70378
C         35.27167        52.87451        -0.24060
C         34.05703        52.16310        -0.45647
C         35.25394        54.23584         0.17626
C         33.99760        54.90655         0.28810
C         35.23611        57.08074         0.64151
C         33.96793        56.32350         0.67165
C         35.24171        58.43890         0.41692
C         34.01179        59.05104         0.01708
C         35.28746        61.50739         0.93794
C         34.02804        61.15838         0.38935
C         37.70388        44.39858        -0.46408
C         37.79689        45.73514        -0.92565
C         36.64632        46.53397        -0.77882
C         37.82827        48.66705        -1.11986
C         36.60200        47.94354        -0.94710
C         37.85102        50.07112        -0.97390
C         36.56064        50.77897        -0.99236
C         37.81684        52.79968        -0.05956
C         36.56172        52.25679        -0.57532
C         37.73849        54.12216         0.57534
C         36.47767        54.88663         0.49737
C         37.76219        57.07789         0.87988
C         36.47056        56.30750         0.86071
C         37.77815        58.53855         0.50077
C         36.47909        59.28775         0.33887
C         37.71847        61.35095         0.98448
C         36.48284        60.74599         0.71798
C         40.27668        40.04026        -0.25260
C         40.16039        41.40434        -0.89406
C         38.98108        42.17540        -0.29637
C         40.47887        44.37896        -1.54850
C         38.61153        43.36923        -0.85602
C         40.38773        45.76976        -1.42015
C         39.02932        46.40220        -1.48855
C         40.35484        48.66343        -1.48293
C         39.04118        47.92017        -1.49840
C         40.33469        50.16335        -1.17753
C         39.04803        50.82278        -0.87560
C         40.31689        52.81454        -0.09351
C         39.04908        52.16224        -0.34795
C         40.39230        54.10534         0.70335
C         39.04667        54.83988         0.81351
C         40.29997        57.08471         0.60821
C         39.01974        56.31999         0.59492
C         40.23165        58.50725         1.05259
C         38.99982        59.26701         0.85256
C         40.22394        61.38257         1.06474
C         38.98908        60.67145         0.99028
C         42.61554        35.94815         1.21469
C         42.70701        37.35607         0.66298
C         41.51455        38.01457         0.36550
C         42.71762        39.93018        -0.69067
C         41.45306        39.33617        -0.19205
C         42.73723        41.40252        -1.02821
C         41.50347        42.20025        -0.63381
C         42.81662        44.34204        -1.02681
C         41.59975        43.62745        -1.17211
C         42.81353        45.77225        -1.06886
C         41.58562        46.49773        -1.19404
C         42.80089        48.63783        -0.96821
C         41.60449        47.93467        -1.18924
C         42.79510        50.08082        -0.79644
C         41.59009        50.80110        -0.75256
C         42.79591        52.89500        -0.17599
C         41.54529        52.17276        -0.32583
C         42.82643        54.29727         0.09950
C         41.59436        54.98426         0.38053
C         42.80135        57.13928         0.65316
C         41.58517        56.35068         0.61551
C         42.77040        58.51095         0.84668
C         41.53437        59.26181         1.13857
C         42.66541        61.41059         0.64497
C         41.49269        60.73732         0.95991
C         45.11109        33.55518         2.81366
C         43.91344        34.13909         2.35576
C         45.14435        36.07599         1.55834
C         43.91976        35.38278         1.72625
C         45.17923        37.38286         0.95069
C         43.96308        37.98658         0.48426
C         45.22607        40.10806        -0.14579
C         44.00584        39.25842        -0.27019
C         45.32056        41.43656        -0.81231
C         44.04587        42.14833        -1.08481
C         45.26634        44.30636        -0.86174
C         44.05860        43.62539        -0.93648
C         45.26747        45.75148        -0.80518
C         44.04329        46.48290        -0.90914
C         45.25741        48.59626        -0.55452
C         44.03975        47.90957        -0.81944
C         45.27849        50.05155        -0.49294
C         44.03579        50.78565        -0.59830
C         45.24788        52.95896        -0.53252
C         44.00608        52.18816        -0.41664
C         45.27627        54.38311        -0.17884
C         44.05876        55.04135         0.09846
C         45.25726        57.18814         0.44678
C         44.06578        56.45730         0.42181
C         45.28094        58.60066         0.68741
C         44.01215        59.33584         1.01985
C         45.21379        61.42996         0.34982
C         43.91630        60.65765         0.24992
C         46.31807        34.20733         2.64312
C         47.59183        36.17676         1.86117
C         46.36388        35.48479         2.01821
C         47.63964        37.45632         1.28275
C         46.41765        38.04615         0.83225
C         47.76672        40.01184        -0.03097
C         46.45181        39.45657         0.39858
C         47.80698        41.36779        -0.65730
C         46.51730        42.11468        -0.84413
C         47.72404        44.25608        -0.83342
C         46.53017        43.57038        -0.90599
C         47.72522        45.67128        -0.40491
C         46.47498        46.45284        -0.59197
C         47.70325        48.53205         0.00916
C         46.46056        47.85112        -0.42656
C         47.69856        50.02676         0.14836
C         46.47881        50.73411        -0.27032
C         47.80514        52.91063        -0.14814
C         46.56804        52.17264        -0.48992
C         47.73944        54.34316        -0.01636
C         46.53515        55.04849        -0.05683
C         47.72893        57.21920         0.54718
C         46.52933        56.55961        -0.07020
C         47.70565        58.59168         0.80340
C         46.45886        59.34699         0.72528
C         47.66565        61.57423         0.35984
C         46.43018        60.81549         0.57066
C         48.87937        38.18843         1.20234
C         50.17671        40.18793         0.53772
C         48.98120        39.43789         0.59361
C         50.33225        41.45899        -0.07496
C         49.14049        42.08329        -0.75689
C         50.24266        44.42415        -0.92886
C         49.03408        43.59277        -1.01472
C         50.32661        45.70751        -0.44936
C         49.02682        46.37543        -0.15696
C         50.30924        48.57563        -0.41356
C         49.00483        47.85564        -0.31512
C         50.31107        50.03345        -0.06182
C         49.01684        50.76297         0.15534
C         50.29508        52.93858        -0.09532
C         49.00170        52.22644        -0.03577
C         50.29847        54.41443         0.18926
C         48.96513        55.00220         0.50411
C         50.26117        57.16066         0.86322
C         48.94580        56.45759         0.83490
C         50.20743        58.65649         1.10497
C         48.87266        59.18436         1.33912
C         50.21813        61.55214         0.50516
C         48.89052        61.24069         0.92579
C         51.57065        42.09382         0.17983
C         52.86399        44.27575         0.30567
C         51.99832        43.36945        -0.28409
C         52.82647        45.69974         0.01256
C         51.59315        46.40109        -0.27808
C         52.79454        48.54842        -0.12725
C         51.59823        47.82905        -0.26302
C         52.84659        50.01581        -0.31032
C         51.55636        50.79884        -0.37435
C         52.76280        52.90226         0.23772
C         51.57517        52.22307        -0.01509
C         52.73559        54.27764         0.68455
C         51.53793        55.04078         0.71645
C         52.68583        57.12968         1.51920
C         51.47974        56.38147         1.15025
C         52.69271        58.67437         1.51501
C         51.38700        59.51064         1.57788
C         52.63261        61.29870         0.33030
C         51.40013        60.81977         0.78691
C         53.99521        46.45066         0.23182
C         55.23862        48.59933         0.20980
C         54.02934        47.86188         0.11196
C         55.28237        50.02166         0.19220
C         54.06019        50.76675         0.04417
C         55.26040        52.85858         0.43676
C         54.02888        52.16034         0.22937
C         55.27209        54.25518         0.73518
C         53.99137        54.89895         1.11249
C         55.21845        57.16207         1.20930
C         53.99750        56.40485         1.42446
C         55.16176        58.55622         0.97208
C         53.92690        59.28614         1.01000
C         55.07420        61.20510         0.00586
C         53.87247        60.59996         0.46577
C         56.49552        50.73179         0.30788
C         57.71476        52.88452         0.43531
C         56.50720        52.14703         0.38408
C         57.71309        54.28762         0.58915
C         56.46380        54.96458         0.83035
C         57.70081        57.15845         0.79302
C         56.51914        56.39090         1.34129
C         57.60796        58.54016         0.80642
C         56.38024        59.27764         0.67861
C         57.55037        61.35817        -0.38674
C         56.32127        60.59347         0.13386
C         58.90308        55.04032         0.41352
C         59.82568        57.03166        -0.58212
C         58.87652        56.46355         0.30520
C         59.68975        58.30991        -1.22128
C         59.01873        59.37242        -0.57682
C         58.79620        60.65062        -2.57682
C         58.46652        60.48009        -1.22824
C         60.06110        58.55184        -2.57243
C         59.63363        59.71067        -3.21264
O         50.37628        58.11298        -0.25413
O         33.12426        56.65091         1.84801
O         52.23599        50.44540        -1.60298
O         47.84874        40.14558        -1.48763
O         37.15070        56.73917         2.13920
O         40.87044        58.75780         2.35344
O         40.44537        49.63912        -2.55805
O         49.21405        42.62112        -2.10330
O         38.32856        54.33292         1.96893
O         36.57351        51.83766        -1.99078
O         37.26262        58.89065        -0.83857
O         47.56545        49.15037         1.32139
O         49.53618        48.26414        -1.62379
O         52.75343        57.91403         2.76856
O         51.37198        43.82876        -1.47142
O         45.62594        40.30565         1.27892
O         58.80927        59.27781         0.80580
O         43.47264        39.11915        -1.62910
O         39.33890        43.72667        -2.02189
O         39.59268        56.78777        -0.66185
O         50.35164        53.96176        -1.18930
O         38.81789        47.13382        -2.73092
O         34.12937        60.24183        -0.69033
O         49.86788        50.34340         1.29389
O         45.99493        52.63102        -1.75426
O         48.81949        55.43645         1.90040
O         43.31201        41.71651        -2.31027
O         54.06171        55.38864         2.50339
O         48.76878        60.34663         2.05320
O         48.29540        45.85037         0.98521
O         56.73623        56.26877         2.79493
H         55.90929        55.87092         3.16029
O         44.07354        59.70027         2.42808
H         43.95895        58.88859         2.96496
O         57.15262        62.51539        -1.10971
H         56.72482        62.23386        -1.94358
O         41.60617        42.34002         0.81168
H         40.78353        42.76763         1.13383
O         43.75610        60.30476        -1.16466
H         43.64671        61.13513        -1.67388
O         41.60937        35.87665         2.23822
H         41.92388        36.38716         3.01217
O         39.99370        41.18087        -2.30001
H         39.73981        42.04058        -2.71046
O         51.16806        59.86496         2.95061
H         51.60220        59.17866         3.50901
O         46.58747        56.90772        -1.50478
H         46.33718        57.85257        -1.59417
O         40.72800        53.64590         2.05552
H         39.86863        53.54585         2.53532
H         29.40403        56.65422        -0.57401
H         28.18405        58.77232        -0.43964
H         30.25639        62.45352         0.45879
H         28.17160        61.23799        -0.08682
H         31.88856        52.32063        -0.54777
H         30.64394        54.42123        -0.44272
H         32.52097        62.34959         1.37747
H         34.45046        48.04792        -0.64745
H         33.14406        50.19440        -0.69409
H         35.37385        62.42594         1.53870
H         36.83395        44.13370         0.15612
H         35.71377        46.03428        -0.47549
H         37.72329        62.42734         1.21490
H         39.35591        39.56784         0.12466
H         38.48516        41.80030         0.61041
H         40.19417        62.48208         1.03263
H         42.25223        35.28340         0.38209
H         40.56779        37.51199         0.61446
H         42.63651        62.50229         0.49715
H         45.08050        32.57204         3.30350
H         42.95903        33.61248         2.49527
H         45.19606        62.49840         0.08164
H         47.25381        33.74963         2.99456
H         48.51947        35.71090         2.22554
H         47.61963        62.42003        -0.34336
H         49.77843        37.73109         1.64191
H         51.06614        39.75516         1.02169
H         50.32348        62.40446        -0.18502
H         52.23708        41.57958         0.89064
H         53.55412        43.93727         1.09280
H         52.65799        62.27557        -0.17640
H         54.92663        45.92011         0.47730
H         56.18194        48.04773         0.33708
H         55.01943        62.21345        -0.42997
H         57.44630        50.18080         0.34959
H         58.67321        52.35595         0.32544
H         58.13775        61.71283         0.50226
H         59.81622        54.50488         0.11075
H         60.54200        56.32773        -1.03829
H         58.41988        61.51621        -3.14021
H         60.62718        57.79090        -3.12803
H         59.90723        59.87242        -4.26448
