         244
 CSIRO Nanostructure Databank - Neutral Graphene Oxide Data Set
C          1.39293         2.13538        -0.85081
C          1.29237         3.46266        -0.53667
C          2.61563         1.42818        -0.72193
C          2.45405         4.23453         0.01877
C          1.33341         6.41410        -0.81930
C          1.34187         7.75119        -1.07363
C          2.52059         5.70248        -0.41457
C          2.55499         8.55270        -0.87539
C          1.23222        10.80530        -0.71352
C          1.24340        12.14786        -0.55096
C          2.50806        10.05690        -0.70210
C          2.47548        12.89737        -0.36100
C          1.34040        15.07109        -0.87705
C          1.37673        16.44396        -0.98069
C          2.49153        14.32178        -0.48314
C          2.56218        17.17043        -0.68571
C          2.61112        18.59110        -0.77873
C          3.79953         2.11340        -0.37976
C          3.76145         3.48761        -0.15583
C          5.06877         1.30989        -0.16561
C          5.00599         4.21514         0.11684
C          3.70317         6.41729        -0.24803
C          3.75806         7.84554        -0.39583
C          4.95748         5.71700         0.10917
C          4.93357         8.56659        -0.12494
C          3.60807        10.69979         0.13251
C          3.67372        12.20054        -0.07118
C          4.94561        10.00472         0.00406
C          4.87363        12.88783         0.18992
C          3.70135        15.02822        -0.20433
C          3.73024        16.45333        -0.28683
C          4.87970        14.31733         0.17535
C          4.92241        17.16292         0.03355
C          3.76729        19.27950        -0.49095
C          4.95284        18.59750        -0.07678
C          6.33963         2.13231        -0.14551
C          6.30235         3.54013        -0.12782
C          7.57988         1.49466        -0.09032
C          7.49378         4.27831        -0.34233
C          6.22152         6.43964        -0.10647
C          6.19046         7.85646        -0.03822
C          7.42881         5.74778        -0.31560
C          7.39380         8.56707         0.14163
C          6.11774        10.70257         0.27230
C          6.11313        12.15480         0.46333
C          7.38755         9.99864         0.39468
C          7.25346        12.81632         0.85702
C          6.04975        15.04257         0.55191
C          6.06439        16.44241         0.49184
C          7.20507        14.29647         1.19992
C          7.26363        17.21950         0.89901
C          6.14426        19.31088         0.16016
C          7.33546        18.65850         0.55387
C          8.80323         2.19911        -0.22567
C          8.73593         3.60262        -0.48102
C         10.01867         1.44592         0.05399
C          9.85071         4.42099        -1.13574
C          8.61299         6.52094        -0.37398
C          8.61565         7.85908         0.07060
C          9.87644         5.86202        -0.70442
C          9.85695         8.52109         0.41436
C          8.54120        10.63920         0.79198
C          8.49231        12.05320         1.31419
C          9.78550         9.84630         1.13934
C          9.83364        12.79423         0.96448
C          8.54308        14.99078         0.80834
C          8.55452        16.47896         1.12838
C          9.74967        14.27794         1.45032
C          9.82939        17.19460         0.90286
C          8.56656        19.31223         0.58127
C          9.81220        18.61230         0.70024
C         11.28113         1.72342        -0.45913
C         11.23963         3.83666        -1.11320
C         12.57871         1.48000        -0.02876
C         12.40564         4.31813        -0.49819
C         11.13204         6.48730        -0.22804
C         11.04367         7.85980         0.30898
C         12.25210         5.61241         0.29447
C         12.33607         8.59933         0.21004
C         11.09486        10.61724         1.06955
C         11.09570        12.06844         1.51695
C         12.28105         9.97807         0.81590
C         12.33850        12.79785         1.00450
C         11.06354        15.04370         1.23856
C         11.03790        16.48304         0.86739
C         12.34249        14.27764         1.03439
C         12.26535        17.15426         0.62060
C         11.03380        19.28379         0.51280
C         12.26038        18.58035         0.45077
C         13.73731         2.08931        -0.79860
C         13.59348         3.54461        -0.32378
C         14.99023         1.39709        -0.35042
C         14.64319         4.06677         0.67307
C         13.52623         6.40856         0.49889
C         13.54222         7.76420         0.57798
C         14.73343         5.60072         0.80499
C         14.78290         8.53257         0.99001
C         13.53204        10.68961         0.71683
C         13.48022        12.12584         0.64503
C         14.74637         9.98488         0.55990
C         14.64360        12.81864        -0.01745
C         13.52234        15.00848         0.52547
C         13.50528        16.43033         0.48519
C         14.70227        14.30078         0.25570
C         14.71280        17.12781         0.20331
C         13.47810        19.26060         0.19621
C         14.69900        18.56677         0.06753
C         16.04251         2.00800         0.22739
C         16.02420         3.45350         0.44252
C         17.27089         1.20610         0.61573
C         17.21384         4.15640         0.40959
C         16.05162         6.33710         0.82668
C         16.06420         7.80597         0.63918
C         17.29224         5.59882         0.52992
C         17.22811         8.46708         0.36039
C         15.93927        10.66298         0.25398
C         15.95961        12.08136         0.12433
C         17.18425         9.90194        -0.11703
C         17.16624        12.76911         0.00706
C         15.91457        14.99560         0.10766
C         15.93586        16.41324         0.07702
C         17.17597        14.23713         0.15237
C         17.16631        17.11781        -0.20853
C         15.90199        19.24254        -0.23416
C         17.12398        18.54603        -0.40078
C         18.51559         1.91267         0.11984
C         18.46540         3.43105         0.03602
C         19.83063         1.27853         0.27206
C         19.75002         4.12883         0.10831
C         18.47271         6.30788         0.35194
C         18.49939         7.75527         0.27631
C         19.75615         5.57120         0.34863
C         19.69306         8.45569         0.06080
C         18.45385        10.68880         0.07051
C         18.43784        12.06698        -0.02611
C         19.75970         9.96252         0.25006
C         19.67357        12.81430        -0.30437
C         18.47047        14.99205        -0.04958
C         18.38180        16.42933        -0.37582
C         19.67015        14.22399        -0.44243
C         19.55643        17.10591        -0.80176
C         18.30699        19.22493        -0.76061
C         19.51269        18.52986        -0.97988
C         20.96750         1.99309         0.06506
C         20.94576         3.43572        -0.04257
C         22.16769         4.16495        -0.30198
C         21.05617         6.32520         0.08657
C         20.94562         7.78116        -0.18016
C         22.20032         5.52177        -0.36812
C         22.03580         8.49221        -0.65060
C         20.89132        10.64313        -0.49669
C         20.85321        12.08945        -0.63513
C         21.98439         9.89590        -0.86957
C         21.97904        12.80502        -1.10154
C         20.80719        14.92908        -0.90623
C         20.77654        16.39064        -1.03930
C         21.95846        14.18316        -1.23917
C         21.91046        17.11590        -1.41681
C         20.69933        19.21755        -1.36833
C         21.86993        18.51668        -1.57394
O         18.31958         2.58274        -1.16429
O         11.21995         2.56565        -1.64162
O         18.00704        14.66633         1.30399
O         15.36928         5.92524         2.10227
O          7.75881        16.91408         2.27087
O         11.96041        14.80642         2.37432
O          2.88805         9.50629        -1.98805
O         10.82228         6.52801        -1.67143
O         20.63226         5.99049         1.45609
O          4.93950         4.98521         1.40385
O          4.93464         0.58210         1.07056
H          4.78398         1.23051         1.78918
O         14.74996         8.58272         2.45388
H         14.88729         7.65435         2.76588
O          8.37839        11.92541         2.75868
H          8.29193        12.84718         3.11950
O         17.09101         9.74727        -1.59775
H         16.75567        10.59629        -1.96041
O          9.50872        14.30929         2.86507
H         10.36064        14.05647         3.29817
O         17.22351        -0.11924         0.08552
H         17.30307        -0.05433        -0.88895
O          8.65130        14.92925        -0.64197
H          7.78902        15.20916        -1.02080
O          3.17778        10.49126         1.51778
H          3.83838        10.91622         2.10526
O          6.99600        14.36793         2.63020
H          7.16196        15.30741         2.89978
O         11.08260        12.11895         2.96366
H         11.84167        11.59191         3.29103
O          9.62511         9.49288         2.55563
H          9.28541        10.30743         3.00758
O         13.66738         1.93432        -2.21600
H         12.74833         2.14541        -2.50195
O         10.03621        12.73422        -0.45705
H          9.39766        13.34698        -0.89631
O         20.09602        10.12915         1.67913
H         20.92593         9.63231         1.84385
O         12.49860         8.86001        -1.23467
H         12.02481         8.15184        -1.72873
O         11.81593         5.20367         1.62444
H         12.51611         4.60227         1.98623
O          2.24583         4.31203         1.48346
H          3.09922         4.64974         1.85642
O          9.43947         4.43454        -2.54142
H          9.95815         5.15014        -2.97325
O         14.36476        12.72015        -1.46934
H         13.39135        12.72831        -1.59358
O         14.17390         3.60841         1.98518
H         14.71527         4.09479         2.65055
H          0.50035         1.58952        -1.19025
H          0.30700         3.94680        -0.57916
H          2.64459         0.34437        -0.89775
H          0.39627         5.85798        -0.95677
H          0.42772         8.24882        -1.42616
H          0.29031        10.27922        -0.92462
H          0.29221        12.69571        -0.59607
H          0.40437        14.54922        -1.11573
H          0.47744        16.99521        -1.29181
H          1.70711        19.13434        -1.09032
H          5.15870         0.53586        -0.97267
H          3.79284        20.37572        -0.57404
H          7.61012         0.40079         0.01972
H          6.16526        20.39550        -0.02255
H          9.89389         0.54922         0.68166
H          8.59855        20.38939         0.35850
H         12.75624         1.15515         1.00567
H         11.03356        20.37443         0.36930
H         15.03540         0.31276        -0.53387
H         13.46474        20.35388         0.07422
H         17.31466         1.11166         1.73440
H         15.88674        20.33480        -0.36536
H         19.86780         0.20887         0.52395
H         18.28348        20.31717        -0.89087
H         21.94798         1.49580         0.10318
H         23.06223         3.58379        -0.57078
H         23.10759         6.02554        -0.72972
H         22.97466         7.97225        -0.88233
H         22.86440        10.36893        -1.32610
H         22.90246        12.27061        -1.36085
H         22.86137        14.68690        -1.60799
H         22.86485        16.60369        -1.59686
H         20.66904        20.30864        -1.49907
H         22.78550        19.04793        -1.86929
