         576
 CSIRO Nanostructure Databank - Neutral Graphene Oxide Data Set
C          6.04034        19.39047         1.09045
C          5.48799        20.39484         0.35876
C          4.61151        21.45919         0.83460
C          5.81273        23.42379        -0.34363
C          4.75406        22.75679         0.47306
C          6.00872        24.84142        -0.02269
C          8.84038        15.43228         1.90075
C          8.88104        16.86933         1.44132
C          7.54114        17.55189         1.46348
C          8.21938        19.13256        -0.33826
C          7.22540        18.62578         0.68872
C          8.27648        20.59398        -0.65365
C          7.11388        21.26099        -0.90407
C          8.27817        23.45979        -1.34609
C          6.98544        22.71832        -1.02733
C          8.37959        24.85724        -0.75789
C          7.19710        25.54389        -0.29187
C          8.47131        27.65384        -0.25668
C          7.28901        26.92771         0.00307
C          8.54277        29.05167        -0.06091
C         11.23665        11.23388         2.72060
C         11.10959        12.47602         2.06489
C          9.96189        13.26261         2.16363
C         11.02451        15.10162         0.83424
C          9.88567        14.58562         1.60866
C         10.94228        16.36162         0.19323
C          9.55230        16.94026         0.05768
C         10.74509        19.08763        -0.88332
C          9.48535        18.35548        -0.54340
C         10.77546        20.46468        -1.06614
C          9.54751        21.26955        -0.92497
C         10.77093        23.37458        -1.44679
C          9.53282        22.63114        -1.11481
C         10.89372        24.78574        -0.90927
C          9.58725        25.53866        -0.85631
C         10.83087        27.66973        -1.06065
C          9.64645        26.95339        -0.69502
C         10.83908        29.06919        -0.95599
C          9.71098        29.76384        -0.39370
C         10.93266        31.91988        -0.50992
C          9.77199        31.16709        -0.20850
C         10.92823        33.33920        -0.30502
C         13.96814         7.28853         4.20572
C         13.78684         8.56997         3.55346
C         12.59661         9.24955         3.46208
C         13.64543        11.19664         2.35568
C         12.49123        10.54845         2.80375
C         13.60075        12.62472         1.88179
C         12.27084        12.92417         1.19455
C         13.34815        14.93065         0.14214
C         12.21300        14.36568         0.75519
C         13.31158        16.25150        -0.36502
C         12.06950        16.94483        -0.38566
C         13.30034        19.05031        -1.16838
C         11.98766        18.29576        -1.00248
C         13.25053        20.51195        -1.25146
C         12.03928        21.15478        -1.33119
C         13.31952        23.36474        -1.59365
C         12.04234        22.61561        -1.57762
C         13.27717        24.81597        -1.78462
C         12.05088        25.55488        -1.50224
C         13.14809        27.68409        -2.10719
C         11.99236        26.93321        -1.56332
C         13.18162        29.18631        -2.02466
C         11.97472        29.88202        -1.44164
C         13.20672        32.13221        -1.60244
C         12.07913        31.28540        -1.03541
C         13.32359        33.44597        -0.85871
C         12.09318        34.08832        -0.44726
C         13.31046        36.16835        -0.03036
C         12.11276        35.47658        -0.12032
C         13.33718        37.56352         0.34295
C         16.43611         7.24988         3.87204
C         15.18532         6.68436         4.35633
C         16.31187         8.49311         3.06001
C         14.99290         9.16523         2.93348
C         16.20153        11.29328         2.09309
C         14.96325        10.62123         2.62239
C         16.00590        12.46114         1.19923
C         14.77412        13.00206         0.99562
C         15.81302        14.78549        -0.55451
C         14.58746        14.12951         0.05118
C         15.72823        16.22776        -0.84001
C         14.55225        16.91238        -0.75316
C         15.80744        19.05365        -1.35840
C         14.59839        18.42519        -0.68131
C         15.77665        20.49572        -1.55174
C         14.56084        21.26018        -1.06628
C         15.73491        23.31710        -2.01055
C         14.51555        22.67826        -1.59030
C         15.67942        24.74245        -2.53048
C         14.44852        25.48810        -2.06909
C         15.77816        27.67977        -2.31173
C         14.44064        26.94110        -2.30270
C         15.74084        29.09171        -1.75823
C         14.52767        29.87411        -2.02167
C         15.81838        31.96386        -1.29341
C         14.54426        31.36778        -1.78566
C         15.79902        33.41683        -1.03289
C         14.52371        34.10785        -0.71668
C         15.76320        36.10909         0.10561
C         14.55548        35.46805        -0.22844
C         15.76420        37.47995         0.56436
C         14.51087        38.19645         0.61022
C         18.97126         7.35974         3.68631
C         17.66386         6.70583         4.12187
C         18.66525         8.31212         2.50809
C         17.57706         9.31858         2.90543
C         18.53648        10.93024         1.25259
C         17.44702        10.49217         1.95966
C         18.54739        12.31600         0.71251
C         17.23862        13.09727         0.68044
C         18.29366        14.80878        -0.75494
C         17.15928        14.24505        -0.23026
C         18.09797        16.06941        -1.58637
C         17.04891        16.95356        -0.88633
C         18.28877        19.01342        -1.68809
C         16.96267        18.33348        -1.47663
C         18.12287        20.38735        -2.31316
C         16.91168        21.17284        -1.95029
C         18.12578        23.36268        -2.70505
C         16.91495        22.60858        -2.14488
C         18.15462        24.78123        -2.12358
C         16.96622        25.45493        -2.14875
C         18.05637        27.49318        -1.01474
C         16.85802        26.83961        -1.64847
C         18.04785        29.00832        -0.71250
C         17.08717        29.79404        -1.69343
C         18.22499        31.85897        -0.74745
C         17.00338        31.25412        -1.26070
C         18.22288        33.14776        -0.26801
C         17.07041        34.03333        -0.48222
C         18.13037        35.93785         0.68354
C         16.99349        35.36834         0.15269
C         18.18486        37.36094         0.96202
C         16.95089        38.09307         0.93758
C         21.14571         6.84157         2.52747
C         20.09357         6.41763         3.31836
C         21.00650         8.02031         1.62466
C         19.85763         8.93012         1.82446
C         20.86480        10.58528         0.27736
C         19.74921        10.11257         1.14427
C         20.80470        11.94613        -0.35273
C         19.63092        12.80891        -0.12752
C         20.66365        14.59765        -1.45862
C         19.57111        14.09924        -0.71597
C         20.57551        15.90317        -2.13189
C         19.38547        16.78394        -1.96017
C         20.62938        18.82620        -2.70722
C         19.38592        18.11759        -2.28035
C         20.67984        20.34347        -2.60941
C         19.38244        21.10721        -2.61779
C         20.69676        23.28759        -2.12411
C         19.44806        22.61274        -2.59231
C         20.65822        24.75648        -1.77311
C         19.36082        25.45610        -1.65570
C         20.53583        27.39699        -0.60812
C         19.33865        26.75066        -1.12954
C         20.55450        28.85128        -0.37779
C         19.43846        29.61246        -0.64367
C         20.71463        31.72326        -0.10458
C         19.54584        31.11024        -0.86259
C         20.65443        32.95852         0.46562
C         19.35047        33.66744         0.53852
C         20.51090        35.77491         1.57468
C         19.28257        35.07864         1.03452
C         20.67249        37.17144         0.94270
C         19.41243        37.97081         1.14000
C         23.57400         6.74656         1.98601
C         22.40795         6.19059         2.56593
C         23.53004         7.92399         1.16481
C         22.22184         8.55509         0.90652
C         23.33729        10.51012        -0.13921
C         22.19823         9.94600         0.40240
C         23.33553        11.83573        -0.71606
C         22.09891        12.70995        -0.57980
C         23.19573        14.53503        -1.83860
C         21.90808        13.74540        -1.70520
C         23.17402        15.85767        -2.13489
C         21.90730        16.57670        -2.43851
C         23.04578        18.76576        -1.78159
C         21.93548        18.07472        -2.58713
C         23.25194        20.28345        -2.06759
C         21.93636        21.05718        -2.22000
C         23.09414        23.09663        -1.24910
C         21.77462        22.38812        -1.48198
C         22.93948        24.44934        -0.62792
C         21.85521        25.37059        -1.08258
C         22.80635        27.23065         0.39845
C         21.69022        26.66394        -0.40165
C         22.92071        28.71212         0.37454
C         21.84334        29.46846        -0.02763
C         23.13574        31.53789         0.63685
C         22.02339        30.96954        -0.22114
C         23.10355        32.89140         1.04794
C         21.84108        33.64678         0.99516
C         22.96281        35.67733         1.89924
C         21.76820        34.94988         1.43102
C         23.00054        37.17461         1.85535
C         21.89579        37.87483         1.46900
C         26.03185         6.73221         1.75571
C         24.84382         6.21500         2.29760
C         25.95282         7.82983         0.80898
C         24.68644         8.46413         0.60637
C         25.83452        10.40343        -0.57657
C         24.55309         9.61916        -0.38142
C         25.77369        11.73090        -1.08606
C         24.51228        12.41168        -1.19411
C         25.73244        14.54350        -1.81711
C         24.47269        13.71575        -1.97820
C         25.70407        15.89652        -2.05722
C         24.43460        16.61917        -2.28223
C         25.60805        18.74960        -1.37444
C         24.39551        18.10580        -2.04621
C         25.60987        20.25852        -1.31862
C         24.26716        20.91384        -1.08826
C         25.53531        23.17777        -0.77509
C         24.26923        22.42400        -1.15507
C         25.24525        24.06533         0.45230
C         23.99329        24.92914         0.31258
C         25.30232        27.05247         1.13344
C         23.99711        26.37992         0.75707
C         25.33827        28.52336         0.94676
C         24.22001        29.29520         0.70567
C         25.44173        31.34895         1.44241
C         24.29353        30.75850         0.86975
C         25.45569        32.72231         1.79545
C         24.27808        33.48812         1.56263
C         25.40443        35.85974         1.55519
C         24.26623        34.93707         1.87860
C         25.41789        37.12875         2.36097
C         24.20127        37.81146         2.34972
C         28.47884         6.26614         1.68204
C         27.25440         6.22390         2.33285
C         28.36616         7.79099         0.20100
C         27.11008         8.43956         0.19611
C         28.30367        10.27210        -1.07242
C         27.05264         9.73540        -0.41097
C         28.26236        11.78622        -1.17379
C         27.01293        12.45093        -1.32846
C         28.21506        14.55912        -1.77671
C         26.98854        13.84589        -1.63168
C         28.21231        15.98627        -1.95477
C         26.94649        16.68033        -2.14143
C         28.14392        18.86611        -1.42026
C         26.91846        18.20480        -1.89434
C         28.07606        20.23235        -0.94215
C         26.79615        20.91926        -0.98928
C         27.86108        22.80773         0.14441
C         26.75818        22.27798        -0.53571
C         27.57480        23.97228         0.96154
C         26.50331        24.81951         0.85673
C         27.91935        26.99492         1.28461
C         26.58082        26.24738         1.32072
C         27.90027        28.37517         1.18560
C         26.67702        29.21974         0.88804
C         27.94628        31.30876         1.49580
C         26.67021        30.51610         1.74300
C         27.93705        32.73287         1.80765
C         26.70184        33.33055         2.25638
C         27.87729        35.45770         2.74477
C         26.81332        34.56760         2.99281
C         27.83171        36.89703         2.96729
C         26.60979        37.62863         2.93192
C         30.91151         6.77190         1.50667
C         29.79444         6.20048         2.17845
C         30.86462         7.83483         0.56357
C         29.64103         8.45374         0.09811
C         30.86184        10.37682        -0.85179
C         29.60527         9.70827        -0.52714
C         30.79123        11.83556        -1.23679
C         29.46288        12.50023        -1.31701
C         30.71243        14.53326        -1.98445
C         29.44422        13.86509        -1.65616
C         30.66895        16.08374        -2.01033
C         29.37823        16.74894        -1.80759
C         30.53517        18.75145        -0.87051
C         29.33243        18.13993        -1.47564
C         30.53459        20.24128        -0.80068
C         29.24157        20.93625        -0.54682
C         30.46489        22.95667         0.33279
C         29.20143        22.24027         0.03121
C         30.60136        24.20972         0.93642
C         29.45323        24.95474         1.42483
C         30.49243        27.08338         1.30542
C         29.22398        26.31024         1.26679
C         30.47788        28.52149         0.94738
C         29.14375        29.18858         0.97700
C         30.38666        31.41246         1.06133
C         29.10513        30.66430         1.16041
C         30.37873        32.86342         1.43525
C         29.10328        33.48414         1.80080
C         30.33323        35.62113         2.46218
C         29.05874        34.97832         1.95728
C         30.30951        36.95033         2.87762
C         29.05230        37.60455         3.05203
C         33.38535         6.86808         1.62741
C         32.20258         6.30730         1.99350
C         33.41718         8.01361         0.75960
C         32.17122         8.36594        -0.02104
C         33.31032        10.59272        -0.47289
C         32.13365         9.83948        -0.35648
C         33.29681        11.96140        -0.87390
C         31.98498        12.69692        -0.83600
C         33.24474        14.55896        -2.21760
C         31.99249        13.93104        -1.66830
C         33.25089        16.07153        -1.84241
C         31.95011        16.80111        -1.71611
C         33.11108        18.76646        -0.53164
C         31.84245        18.04021        -0.88044
C         33.11417        20.21984        -0.48525
C         31.83029        20.95943        -0.67387
C         33.06542        23.08455        -0.10160
C         31.74471        22.40369        -0.26436
C         33.14443        24.39554         0.57985
C         31.92937        24.85284         1.34639
C         33.06884        27.19479         1.21873
C         31.81075        26.38640         1.39435
C         32.95697        28.65000         1.00578
C         31.75146        29.27202         1.05029
C         32.94304        31.50164         1.28500
C         31.66739        30.70379         1.48665
C         32.92494        32.85483         1.67958
C         31.62483        33.44773         2.03302
C         32.87555        35.62715         2.54004
C         31.59728        34.88547         2.48873
C         32.77897        37.02610         2.89919
C         31.57437        37.63433         3.10348
C         34.57452         8.72689         0.57841
C         35.77018        10.69420        -0.28105
C         34.59445         9.99317        -0.10669
C         35.79680        12.01661        -0.83667
C         34.51672        12.66610        -1.14685
C         35.79381        14.65072        -2.11419
C         34.52233        13.92108        -1.74189
C         35.72037        16.11313        -1.66178
C         34.50248        16.67432        -1.31876
C         35.67350        18.83639        -0.79219
C         34.46287        18.02030        -0.72809
C         35.60481        20.20953        -0.49194
C         34.33586        20.90171        -0.34612
C         35.54774        23.02870        -0.10088
C         34.34443        22.33001        -0.21016
C         35.53622        24.54152        -0.14555
C         34.29731        25.10322         0.51564
C         35.55761        27.34165         0.59288
C         34.36243        26.51929         0.93048
C         35.49786        28.73564         0.71423
C         34.17435        29.44039         0.57416
C         35.39632        31.58092         1.19012
C         34.16526        30.86060         1.06636
C         35.35068        32.95191         1.57290
C         34.12833        33.59893         1.83514
C         34.06202        34.98783         2.25553
C         36.99003        12.69442        -1.01018
C         38.20817        14.76941        -1.52071
C         37.05499        14.03575        -1.52889
C         38.20787        16.19661        -2.03596
C         36.93108        16.85777        -1.55045
C         38.12838        18.97275        -1.11249
C         36.90941        18.20519        -1.15325
C         38.08446        20.31303        -0.74922
C         36.82346        20.96260        -0.44169
C         38.10943        22.99437         0.14625
C         36.77981        22.33972        -0.15616
C         38.10526        24.49376         0.41146
C         36.78865        25.20441         0.42330
C         38.01434        27.40474         0.54451
C         36.79325        26.68365         0.46612
C         37.95355        28.80325         0.69213
C         36.70817        29.49318         0.76110
C         36.63179        30.90193         0.98105
C         39.44818        16.99719        -1.72981
C         40.60502        19.15549        -1.39261
C         39.40448        18.33986        -1.43888
C         40.56127        20.52760        -1.22495
C         39.26531        21.13378        -0.96272
C         40.92156        23.57472        -0.45445
C         39.09272        22.49060        -0.85809
C         40.67485        24.61906         0.39393
C         39.36667        25.31069         0.39654
C         39.27534        26.67510         0.50997
C         41.79303        21.27696        -0.96559
C         41.96143        22.55715        -0.50344
O         30.51130        32.42450         0.03039
O         22.81373        24.22633         0.83889
O         14.67879        30.84764        -3.14686
O         30.97303        10.86812        -2.28687
O         28.38178         6.42048         0.26314
O         21.42882        18.44877        -3.88101
O         18.20028        13.29953         1.77139
O         31.49703        33.74784         3.45394
O         13.58563        27.28225        -3.45344
O         26.97433        17.68296        -3.22376
O         37.32592        24.66469         1.67047
O         31.52073        30.54247         2.88890
O         32.76484        16.95584        -2.92455
O         20.51617        10.76739        -1.16219
O         16.70141        34.15870        -1.90958
O         11.26463        23.07919        -2.77473
O         25.76176        26.61439         2.47574
O         12.67339        18.37997        -2.30094
O         30.97159        17.95734         0.29673
O         24.48744        17.59466        -3.38507
O         17.00137        26.85757        -0.18674
O         20.44266        23.12373        -3.53942
O         21.15955        15.89280        -3.49018
O         21.25154         7.68652         0.21268
O         29.79102        28.80110        -0.32436
O         22.95372        26.63942         1.74817
O          8.42938        18.37235        -1.58245
O         12.21693        29.76357        -2.93704
O         23.57664        35.20161         3.15088
O         28.46142        24.18807         2.00374
O         17.90428        23.49183        -4.14181
O         18.90371        33.96269         1.92903
O         31.14537        26.84574         2.62168
O         32.29003        23.24116        -1.35857
O         30.69720        15.31133        -3.23737
O          5.91003        20.55253        -0.96983
O         33.78591        18.09907         0.58022
O         14.81008        18.71990         0.70548
O         26.08633        35.71082         0.54260
O         15.79399        11.50147         3.52107
O         31.22008        20.75998        -2.00744
O         21.69255        25.48081        -2.52887
O         39.94875        23.39192        -1.47529
O         21.54724        20.97446        -3.61019
O          5.83833        23.15120        -1.81390
O         15.00153        13.85647        -1.33696
O         15.54743         8.36052         1.82188
O         33.98910        26.82244         2.32279
O          9.74210        17.61203         2.36108
H          9.41764        17.46330         3.27355
O         35.51576        24.92332        -1.55016
H         34.71850        24.52656        -1.96334
O         33.23498        14.48616        -3.66650
H         32.43237        14.98917        -3.96062
O         21.26050        22.03003        -0.16727
H         21.63806        22.64341         0.50484
O         17.43734        17.16098         0.51299
H         16.67858        17.65767         0.91886
O         18.52305        20.58173        -3.70438
H         18.11309        22.61660        -4.54254
O         17.50646        29.20830         0.61565
H         17.06320        28.36542         0.87481
O         12.25303        12.10084        -0.00114
H         11.51861        12.40367        -0.57493
O         34.00548        29.53932        -0.89871
H         34.72377        30.11218        -1.24329
O         24.30083         9.00378        -1.68432
H         23.42898         8.55493        -1.64293
O         31.70147        13.04704         0.58215
H         32.45986        13.56734         0.92328
O         19.90754        31.24714        -2.28488
H         19.19485        30.79320        -2.81142
O         18.11829         7.43142         1.49680
H         17.83834         7.96229         0.72170
O         22.50182        31.13875        -1.59147
H         21.70384        31.13115        -2.17989
O         26.80830        29.64193        -0.50428
H         27.72276        29.47130        -0.81840
O         16.17802        27.76284        -3.71893
H         15.34287        27.79217        -4.24558
O         18.81845        19.32197        -0.35507
H         18.55698        18.56997         0.24047
O         21.69680        13.05272        -2.96353
H         21.48856        13.74581        -3.63319
O         23.94208        20.37138        -3.32462
H         23.26820        20.26343        -4.03921
O          8.25805        23.69481        -2.78619
H          7.31324        23.78669        -3.04753
O         13.69998        13.46259         3.06533
H         14.50165        13.16940         3.55814
O         38.15632        16.15753        -3.49618
H         37.38082        15.59407        -3.75620
O         26.61742        30.18004         3.14694
H         27.38451        29.60842         3.36320
O          8.83633        16.03052        -0.80344
H          8.35725        16.58287        -1.46937
O         22.61573        18.50838        -0.42817
H         22.81632        19.28750         0.14508
O         25.87558        24.07107        -1.85826
H         26.01292        23.54143        -2.67199
O         20.85338        36.93694        -0.48761
H         20.89039        37.80477        -0.94128
O         15.53531        24.70104        -3.97353
H         16.34851        24.25959        -4.33581
O         28.91066        35.49933         0.57826
H         27.94307        35.53751         0.37088
O         24.97832        23.10288         1.51596
H         24.63307        23.59578         2.29208
O         17.48706        15.68437        -2.84474
H         18.16483        15.25753        -3.40923
O         28.27489         9.79159        -2.46130
H         29.12247        10.08070        -2.87648
O         17.73572        29.78019        -3.00050
H         17.22111        29.17291        -3.59699
O         11.23967        24.57703         0.50820
H         11.32211        25.45637         0.93428
O         38.56054        22.39027         1.40835
H         38.05382        22.84238         2.12216
O         23.90307        20.65673         0.31618
H         24.25564        21.40941         0.86295
O         24.47785        13.28074        -3.37470
H         23.61713        12.82461        -3.53411
O         32.31486         7.67571        -1.31944
H         32.32614         6.71199        -1.13718
O         17.87698         9.93021         4.18963
H         17.21817        10.66275         4.31313
O         20.30680        35.99208         2.98797
H         19.94359        35.15444         3.35301
O         25.55736        18.30156         0.02403
H         24.89019        18.85950         0.48879
O         22.30068        13.51348         0.61887
H         22.49133        12.91722         1.37255
O         19.52604         8.04874         4.83540
H         18.94534         8.82326         5.03501
O         32.13849        24.39918         2.70865
H         31.81966        25.11653         3.30531
O         12.74145        32.50083        -2.92987
H         12.83503        31.69269        -3.49173
O         14.72936        21.36414         0.38462
H         14.80073        20.41556         0.72535
O         25.93967        34.87573         3.97644
H         25.23744        34.19890         4.06229
O         35.92519        14.60604        -3.56491
H         35.01037        14.66076        -3.94663
H          5.66268        19.20875         2.10827
H          3.83003        21.20399         1.56796
H          4.05514        23.47393         0.93592
H          5.19314        25.37198         0.49227
H          8.00920        15.08797         2.53734
H          6.83663        17.25223         2.25771
H          6.40221        27.45705         0.38046
H          7.66943        29.59412         0.32834
H         10.36639        10.80816         3.24411
H          9.11880        12.90585         2.77725
H          8.88771        31.68904         0.18506
H         10.00184        33.82410         0.03429
H         13.07343         6.79600         4.61558
H         11.68385         8.81642         3.89835
H         11.16413        35.98552         0.10539
H         12.38054        38.09961         0.42504
H         15.23853         5.72095         4.88587
H         14.52197        39.25445         0.90982
H         17.73151         5.79644         4.74089
H         16.95544        39.15697         1.21699
H         20.22741         5.51304         3.93384
H         19.47260        39.05693         1.30835
H         22.51866         5.30231         3.20632
H         21.91774        38.97631         1.46489
H         24.90536         5.36768         2.99617
H         24.14205        38.84476         2.72564
H         27.20321         5.82458         3.35640
H         26.61973        38.67319         3.28361
H         29.97037         5.71587         3.15014
H         29.03055        38.68673         3.24875
H         34.33077         6.50421         2.05689
H         32.19742         5.46870         2.70479
H         33.71060        37.59679         3.02833
H         31.54057        38.69185         3.40382
H         35.50559         8.37931         1.05351
H         36.72440        10.23280         0.01548
H         36.29486        33.50275         1.70123
H         35.00566        35.55060         2.32502
H         37.93152        12.20648        -0.71351
H         39.13887        14.32637        -1.13180
H         38.88675        29.37942         0.78255
H         37.56873        31.47573         1.05538
H         40.41569        16.52962        -1.97022
H         41.57678        18.64900        -1.50189
H         41.42874        24.93361         1.13137
H         40.20116        27.26923         0.54875
H         42.70418        20.65508        -0.99293
H         42.96660        22.84303        -0.15385
