         470
 CSIRO Nanostructure Databank - Neutral Graphene Oxide Data Set
C         39.64270        51.10494        -3.50587
C         38.89297        51.99484        -4.27541
C         38.98411        53.60490        -2.47682
C         38.56772        53.25106        -3.76016
C         40.71979        49.03294        -1.59375
C         41.01602        50.52055        -1.48370
C         40.05838        51.44492        -2.20836
C         40.03052        53.06913        -0.23194
C         39.74240        52.72004        -1.69430
C         40.22444        54.55787         0.01321
C         42.49676        48.69767         0.04988
C         41.40589        48.18563        -0.80479
C         42.44732        50.01772         0.42446
C         41.18736        50.79427         0.02989
C         42.55843        52.96291         0.58411
C         41.25853        52.28454         0.31103
C         42.69070        54.41463         0.22857
C         41.40101        55.16057         0.24501
C         44.88475        45.76728        -0.01650
C         43.71497        46.50713        -0.08003
C         44.89906        48.47047         0.70577
C         43.69021        47.87828         0.26151
C         44.90231        49.86616         1.19642
C         43.60443        50.69130         1.04857
C         44.96915        52.76682         1.08664
C         43.76131        52.15250         0.86747
C         45.21228        54.24025         0.84630
C         44.04282        55.07700         0.37337
C         45.02489        57.11678         1.44488
C         44.10603        56.53527         0.64898
C         47.39727        44.23205        -0.03622
C         47.37700        45.61625         0.25423
C         46.11717        46.36686         0.33072
C         47.37355        48.40577         1.06566
C         46.10738        47.73913         0.67524
C         47.42053        49.89056         1.10996
C         46.18181        50.59993         1.26314
C         47.40800        52.73846         1.48915
C         46.15317        51.99120         1.36694
C         47.31553        54.21253         1.19657
C         46.13782        54.88960         1.85736
C         47.52585        56.99722         2.05273
C         46.17328        56.35868         2.00120
C         47.63897        58.34587         2.51383
C         49.83340        44.20569        -0.15206
C         48.59074        43.53911        -0.18303
C         49.83135        45.60481         0.08962
C         48.61966        46.27682         0.38549
C         49.99959        48.42341         0.91991
C         48.66838        47.66254         0.90958
C         49.87377        49.90479         0.59525
C         48.62975        50.56089         0.90286
C         49.74772        52.82279         0.48530
C         48.67130        52.01547         1.11550
C         49.77353        54.26938         0.78463
C         48.62573        54.93866         1.16144
C         50.02579        56.90944         1.88148
C         48.65902        56.31161         1.62191
C         50.04160        58.40843         2.07140
C         48.83927        59.03128         2.49141
C         52.33819        41.36759        -0.39263
C         51.15207        42.04226        -0.33843
C         52.27969        44.19114        -0.47754
C         51.10301        43.49144        -0.33369
C         52.23761        45.66236        -0.58375
C         51.04767        46.38112        -0.09123
C         52.28925        48.51819        -0.09005
C         51.08673        47.74412         0.12515
C         52.27519        49.94557         0.02799
C         51.02684        50.62267         0.27769
C         52.28474        52.86102         0.05517
C         51.00724        52.09819         0.09426
C         52.29054        54.26790         0.20095
C         51.02554        55.00078         0.47072
C         52.40256        57.12110         0.93181
C         51.09092        56.42507         0.91599
C         52.42420        58.44811         1.33888
C         51.27243        59.09205         1.95251
C         52.62703        61.11428         2.36411
C         51.43113        60.42644         2.43553
C         54.85708        39.93156        -0.11147
C         54.81215        41.37638        -0.23468
C         53.60500        42.04162        -0.45461
C         54.81998        44.26800        -0.33024
C         53.59290        43.50676        -0.81971
C         54.80413        45.66742        -0.35465
C         53.54463        46.41001        -0.60348
C         54.72056        48.57477        -0.30258
C         53.50659        47.85269        -0.31855
C         54.68392        49.99073        -0.35926
C         53.46917        50.68685        -0.20964
C         54.69978        52.87278        -0.34055
C         53.48645        52.15218        -0.17458
C         54.70454        54.26395        -0.14923
C         53.51851        54.98052         0.16942
C         54.77551        57.12633         0.33456
C         53.57487        56.43078         0.44313
C         54.85115        58.58842         0.47236
C         53.59992        59.28230         1.03989
C         55.00185        61.26092         1.59800
C         53.75718        60.58642         1.69119
C         55.09590        62.65014         1.96147
C         57.19801        39.98487         0.62299
C         55.96285        39.26482         0.29169
C         57.26034        41.42144         0.32280
C         56.03980        42.12632        -0.01956
C         57.19758        44.27779         0.47019
C         56.00942        43.53194        -0.01631
C         57.18846        45.77077         0.37542
C         55.96705        46.46492        -0.08012
C         57.14899        48.66993         0.31309
C         55.95725        47.85181        -0.13997
C         57.22273        49.98663        -0.44814
C         55.93577        50.69330        -0.72706
C         57.25995        52.90199        -1.13568
C         55.83823        52.17466        -1.08586
C         57.29024        54.27540        -0.45628
C         56.01710        54.96181        -0.09663
C         57.30954        57.20265        -0.16936
C         56.00148        56.45309        -0.12328
C         57.37104        58.59106         0.33667
C         56.16084        59.26438         0.66568
C         57.51080        61.24556         1.42790
C         56.18001        60.58718         1.14408
C         57.46842        62.75286         1.38892
C         56.24989        63.37249         1.78697
C         59.77436        37.09930         0.31144
C         58.60116        37.74283         0.55171
C         59.78722        39.94874         0.45658
C         58.55841        39.19457         0.73897
C         59.73725        41.36409         0.39344
C         58.49525        42.07621         0.39273
C         59.66216        44.25654        -0.24303
C         58.55920        43.58235         0.58903
C         59.67104        45.82360        -0.18262
C         58.45973        46.51157         0.29963
C         59.66600        48.63081         0.27093
C         58.46200        47.91536         0.26812
C         59.77366        49.98786        -0.37271
C         58.47877        50.77597        -0.38442
C         59.79993        52.82294        -0.70070
C         58.48474        52.10466        -0.64771
C         59.81445        54.33214        -0.75965
C         58.54515        55.08475        -0.60669
C         59.80294        57.19693        -0.29417
C         58.57531        56.43116        -0.29199
C         59.83437        58.57500        -0.07378
C         58.62517        59.27107         0.33822
C         59.87332        61.39287         0.54384
C         58.68000        60.63981         0.69687
C         59.87310        62.80995         0.79753
C         58.64897        63.48417         1.16728
C         59.83284        65.63345         1.17172
C         58.67930        64.91393         1.30729
C         62.38460        35.69900         0.12254
C         62.28784        37.07431         0.25464
C         61.03094        37.80714         0.24953
C         62.25230        39.96855         0.06055
C         60.99995        39.21593         0.27082
C         62.21069        41.44377         0.09827
C         60.96228        42.11181         0.14305
C         62.12136        44.02990        -0.73668
C         60.92510        43.47470        -0.26418
C         62.12611        46.16599        -0.59589
C         60.91105        46.59927        -0.08403
C         62.18249        48.66806         0.44764
C         60.90809        47.88683         0.69488
C         62.17417        50.04931         0.33181
C         60.97261        50.79107         0.07977
C         62.23955        52.92181        -0.01946
C         61.02491        52.15952        -0.18763
C         62.27114        54.34879        -0.23052
C         61.07244        55.03082        -0.48189
C         62.33359        57.22417        -0.78794
C         61.03686        56.48556        -0.67239
C         62.29521        58.65447        -0.43954
C         61.09429        59.31014        -0.16305
C         62.25974        61.50162         0.01342
C         61.07953        60.74469         0.10445
C         62.27975        62.89201         0.32234
C         61.06477        63.56624         0.65445
C         62.27241        65.73073         0.70201
C         61.07705        64.99352         0.85978
C         62.38117        67.15589         0.98591
C         64.86000        35.64471         0.22787
C         63.63286        35.01964         0.08714
C         64.87437        37.08033         0.59303
C         63.53996        37.80873         0.55392
C         64.80735        40.05665         0.48464
C         63.56794        39.25642         0.20097
C         64.71725        41.52705         0.25799
C         63.41532        42.16324        -0.02989
C         64.59233        44.35463        -0.35563
C         63.39162        43.52882        -0.37887
C         64.58884        45.77608        -0.20871
C         63.39121        46.57502        -0.09255
C         64.64641        48.55958         0.65255
C         63.43123        47.93206         0.39226
C         64.71474        50.02309         0.52109
C         63.45298        50.78035         0.24266
C         64.66261        52.95207         0.44933
C         63.44827        52.25767         0.30947
C         64.69959        54.34870         0.15499
C         63.53727        55.04390        -0.18710
C         64.87247        57.21692        -0.35300
C         63.65646        56.43201        -0.83134
C         64.86013        58.66691        -0.38721
C         63.57116        59.37630        -0.59510
C         64.77625        61.56756        -0.07055
C         63.52503        60.87767        -0.41000
C         64.76110        62.96192         0.14465
C         63.49866        63.62994         0.26039
C         64.68988        65.76454         0.13655
C         63.48538        65.04150         0.37448
C         64.51970        67.20629        -0.24938
C         63.47972        67.86121         0.63021
C         67.40369        32.85146        -0.05843
C         66.18550        33.50961        -0.02741
C         67.33509        35.62873        -0.08010
C         66.12122        34.92574         0.02001
C         67.37345        37.10829         0.05489
C         66.16468        37.86382         0.47000
C         67.16665        40.04763        -0.61578
C         66.21075        39.41546         0.43018
C         67.06308        41.55643        -0.64219
C         65.92499        42.24822        -0.19936
C         67.05314        44.41461        -0.53565
C         65.84730        43.66989        -0.35253
C         67.05348        45.82428        -0.35159
C         65.84933        46.45507        -0.05699
C         67.20879        48.53517         0.67395
C         65.90073        47.80715         0.54254
C         67.21127        50.00376         1.06655
C         65.90430        50.75275         1.03979
C         67.22449        52.92231         1.01875
C         65.88201        52.25244         0.96706
C         67.29026        54.31146         0.43876
C         66.02162        55.02970         0.04859
C         67.31512        57.20342         0.09650
C         66.02064        56.51475        -0.05248
C         67.30868        58.71804         0.01551
C         66.01268        59.41236        -0.13583
C         67.13004        61.58373         0.49777
C         65.97562        60.85563         0.05343
C         67.20852        62.99968         0.45239
C         65.98673        63.68741         0.24760
C         67.14597        65.84716        -0.17041
C         65.93357        65.12352         0.11511
C         67.05294        67.23690        -0.54724
C         65.82093        67.94172        -0.43856
C         66.91013        69.97405        -1.19192
C         65.77455        69.30261        -0.72881
C         70.01200        31.47093         0.05753
C         69.91411        32.87978         0.11843
C         68.63275        33.55599        -0.03056
C         69.81559        35.75290         0.04954
C         68.58974        34.97190        -0.07476
C         69.80024        37.16182        -0.11668
C         68.53239        37.74064        -0.70129
C         69.79620        39.95978        -0.81576
C         68.46840        39.26857        -0.87534
C         69.92348        41.29311        -1.22867
C         68.06749        42.36057        -1.24316
C         69.53937        44.36891        -0.84415
C         68.23085        43.72099        -0.93675
C         69.54844        45.72640        -0.47260
C         68.32699        46.58547        -0.70961
C         69.66001        48.53599         0.53707
C         68.39998        48.12116        -0.21678
C         69.68905        49.84502         1.11034
C         68.50889        50.74232         1.08888
C         69.71251        52.96878         1.26461
C         68.50966        52.13644         1.13574
C         69.70323        54.40710         1.00245
C         68.51893        55.07909         0.73723
C         69.68651        57.31384         1.09839
C         68.35401        56.55483         1.01437
C         69.69822        58.81787         1.02810
C         68.38017        59.44821         0.71724
C         70.02438        61.84149         0.85866
C         68.18004        60.75407         1.02817
C         69.78880        63.09794         0.34966
C         68.49136        63.85243         0.66476
C         69.53737        65.85388        -0.62990
C         68.40337        65.18974        -0.11166
C         69.43617        67.17004        -1.20920
C         68.20098        67.91003        -1.05570
C         69.22893        69.96348        -2.10803
C         68.10451        69.28431        -1.41408
C         69.37257        71.42429        -2.05951
C         72.37874        31.57381         0.52927
C         71.22431        30.82544         0.25600
C         72.30998        32.95873         0.58579
C         71.08959        33.64183         0.37739
C         72.16332        35.90058         0.65828
C         71.03029        35.09816         0.37872
C         72.11556        37.28057         0.56425
C         70.94052        37.94196         0.12587
C         72.02479        40.21375         0.12884
C         70.91287        39.37953        -0.15826
C         72.02021        41.57930        -0.11865
C         70.92529        42.19214        -0.78526
C         72.01048        44.41672        -0.83202
C         70.79109        43.63653        -0.85052
C         72.01913        45.71045        -0.42335
C         70.77198        46.24475         0.22444
C         71.96108        48.14143         1.24923
C         70.79744        47.71051         0.58903
C         71.99511        49.38044         1.87424
C         70.85553        50.18706         1.82342
C         72.10983        53.19725         1.85350
C         70.88146        52.49128         1.86251
C         72.15785        54.49049         1.38119
C         70.94823        55.16409         1.06453
C         72.10824        57.32300         0.61220
C         70.94594        56.57296         0.87329
C         72.10702        58.70889         0.46351
C         70.96773        59.52468         0.64278
C         72.10815        61.55876        -0.33737
C         71.04813        60.93169         0.41019
C         72.10663        62.90275        -0.57929
C         70.99336        63.76975        -0.16123
C         71.93240        65.80228        -1.43472
C         70.88010        65.23102        -0.59762
C         71.75563        67.01443        -2.03096
C         70.55043        67.75834        -1.85580
C         71.74184        69.91261        -2.56722
C         70.50046        69.14756        -2.37316
C         71.72398        71.26610        -2.68865
C         70.53155        72.02893        -2.43089
O         67.46295        39.51804        -1.93054
O         66.37577        52.87207         2.21039
O         50.70133        56.12743        -0.44976
O         45.90389        55.42287         3.16125
O         59.99295        53.49909        -2.00112
O         64.34537        50.36729        -0.86999
O         56.91800        45.07783         1.68442
O         66.79680        47.70488         1.76869
O         48.01601        47.76048         2.23374
O         41.56377        52.68292         1.65374
O         56.48175        57.03559        -1.38687
O         64.15100        37.44313         1.82281
O         53.93082        59.31585        -0.39331
O         46.45122        54.25854        -0.06657
O         69.75943        58.12917         2.33214
O         56.86109        54.33695         0.95601
O         38.94329        52.60238         0.52265
O         50.00832        52.51011        -0.91819
O         62.09016        45.15358        -1.56192
O         44.02415        50.14059         2.33254
O         56.65272        49.93691        -1.78626
O         63.02884        39.48454        -1.13351
O         66.89327        54.39149        -0.97303
O         63.53644        60.28632        -1.75443
O         69.13679        61.37110         1.83133
O         70.86535        51.32665         2.63522
O         71.37135        64.88743         0.76344
O         43.52859        54.68832        -0.93899
O         52.82858        46.11360        -1.87490
O         67.17433        37.44190         1.46191
O         61.53969        56.94165        -2.00422
O         57.79791        39.63089         1.90508
O         67.78856        57.88173        -1.09766
O         66.41153        50.22289         2.28492
O         64.70666        40.94933         1.63099
O         59.34763        45.02338        -1.39744
O         68.35061        48.95589        -1.33648
O         69.49701        69.36654        -3.42090
O         48.36996        52.38025         2.51263
O         68.97535        41.77504        -2.13017
O         60.83172        47.59231         2.12677
H         60.77285        48.44151         2.61223
O         40.07224        50.27357         0.75553
H         39.41334        51.02652         0.85976
O         42.32586        50.78432        -2.07518
H         42.23782        50.70632        -3.04846
O         67.72680        56.59389         2.32982
H         68.31147        57.14412         2.90805
O         66.89633        39.84228         1.62533
H         66.37115        39.55614         2.40300
O         57.46940        53.13620        -2.53947
H         58.40510        53.42928        -2.67958
O         55.30058        52.18162        -2.42451
H         55.93748        51.69848        -2.99629
O         59.03706        43.73536         1.95187
H         58.35485        44.26004         2.43946
O         56.91552        49.03106         1.70582
H         56.83843        48.20280         2.22589
O         50.49698        48.38980         2.29256
H         49.69718        48.35608         2.87172
O         63.94934        56.15623        -2.22229
H         63.08750        56.15119        -2.70382
O         53.67836        43.53838        -2.28872
H         53.45959        44.46714        -2.55677
O         68.47022        37.18188        -2.04446
H         67.93991        37.79881        -2.59878
O         57.77317        60.92372         2.86443
H         58.59392        61.39836         3.11881
O         63.93516        67.18632        -1.60439
H         63.10652        66.66236        -1.55730
O         68.51945        64.22418         2.06697
H         69.40400        64.61080         2.24676
O         60.03565        49.69073        -1.78900
H         60.11191        50.54310        -2.26981
O         50.45532        56.35456         3.17868
H         49.77157        56.58428         3.84391
O         70.68193        45.57680         1.55083
H         70.76462        44.60918         1.40633
O         68.31804        46.65621        -2.15600
H         68.33213        47.65090        -2.34895
H         39.91026        50.12184        -3.92197
H         38.56788        51.70832        -5.28521
H         38.71831        54.59243        -2.07387
H         37.97905        53.95829        -4.36093
H         39.94397        48.66360        -2.28061
H         39.30384        55.15973         0.05269
H         41.21528        47.10388        -0.85659
H         41.42957        56.24731         0.41867
H         44.84360        44.70227        -0.28020
H         42.79130        46.00303        -0.39318
H         44.99530        58.20689         1.59657
H         43.32592        57.15817         0.18735
H         46.45679        43.67166        -0.11744
H         46.72971        58.86744         2.84303
H         48.54833        42.45835        -0.37241
H         48.83651        60.09862         2.75252
H         52.31248        40.27259        -0.30704
H         50.22077        41.46947        -0.23953
H         52.68638        62.10220         2.84039
H         50.58895        60.91139         2.94685
H         53.95572        39.35109        -0.34847
H         54.19028        63.18144         2.28167
H         55.93165        38.17340         0.41122
H         56.21376        64.45708         1.95514
H         59.77080        36.00439         0.22497
H         57.67842        37.16180         0.68455
H         59.80139        66.72429         1.29497
H         57.75272        65.45305         1.54238
H         61.48313        35.09616        -0.05277
H         61.57262        67.65123         1.54288
H         63.60231        33.94567        -0.14294
H         63.55627        68.93152         0.87167
H         67.40071        31.75324        -0.04604
H         65.26450        32.91273         0.01600
H         66.82691        71.03589        -1.45917
H         64.82219        69.84525        -0.65513
H         69.12031        30.86706        -0.15816
H         68.53203        72.03439        -1.69948
H         73.33907        31.06489         0.69006
H         71.27910        29.72953         0.20074
H         73.23001        33.52361         0.78700
H         73.11100        35.43226         0.95546
H         73.02388        37.85567         0.78806
H         72.89859        39.78603         0.63740
H         72.85842        42.19529         0.23635
H         72.93400        43.94575        -1.20029
H         72.93943        46.30977        -0.46369
H         72.82323        47.46563         1.33171
H         72.86787        49.70242         2.45574
H         73.00435        52.71349         2.26690
H         73.10756        55.04049         1.39783
H         73.06277        56.79782         0.46885
H         73.06602        59.18967         0.22527
H         72.94597        60.95398        -0.71144
H         72.96781        63.35340        -1.09087
H         72.89732        65.28511        -1.51378
H         72.56866        67.43601        -2.63649
H         72.70452        69.38334        -2.59721
H         72.66152        71.81008        -2.87070
H         70.60466        73.12552        -2.42376
