         334
 CSIRO Nanostructure Databank - Neutral Graphene Oxide Data Set
C         30.91291        56.92465        -2.14134
C         30.78473        58.33554        -2.05071
C         29.54318        58.99743        -2.24566
C         30.57229        61.16934        -1.81297
C         29.45501        60.38203        -2.12948
C         32.97745        52.65987        -0.83262
C         33.15893        53.97557        -1.32716
C         32.13181        54.81854        -1.80635
C         33.28826        57.10731        -1.68337
C         32.14018        56.25396        -1.93895
C         33.15674        58.51035        -1.52348
C         31.92942        59.14427        -1.73188
C         32.98503        61.35310        -1.25269
C         31.83497        60.57885        -1.60733
C         35.24406        48.55416         0.49815
C         35.18650        49.93880         0.55383
C         34.03737        50.64925         0.09802
C         35.06110        52.90720         0.59286
C         34.02122        52.03169        -0.10772
C         35.35971        54.17561        -0.17040
C         34.52122        54.47943        -1.19314
C         35.60923        57.20676        -0.77012
C         34.60320        56.60743        -1.55246
C         35.43033        58.67693        -0.46711
C         34.42872        59.31598        -1.43985
C         35.38813        61.48639        -0.63375
C         34.24611        60.77224        -1.06919
C         37.75351        44.29441         0.74247
C         37.72546        45.71135         0.67162
C         36.50217        46.43960         0.62832
C         37.71919        48.57480         0.73859
C         36.47920        47.83686         0.64133
C         37.72530        49.99218         0.86813
C         36.41119        50.68950         0.93510
C         37.71909        52.83630         0.50746
C         36.38637        52.18332         0.89678
C         37.74663        54.34236         0.59755
C         36.44640        55.07690         0.39120
C         37.77345        57.19436         0.38196
C         36.64475        56.48349        -0.16609
C         37.73472        58.68746         0.37612
C         36.78150        59.37265        -0.58812
C         37.77939        61.57212         0.02878
C         36.63586        60.86754        -0.35033
C         40.33488        39.98251         1.26475
C         40.20699        41.45040         0.90995
C         39.04273        42.14197         0.99211
C         40.17240        44.32804         0.66602
C         38.96900        43.59309         0.77651
C         40.18557        45.73510         0.64211
C         38.95550        46.44518         0.66962
C         40.18194        48.59307         0.85791
C         38.94985        47.87340         0.73104
C         40.18116        50.02193         1.01667
C         38.92639        50.70139         1.02181
C         40.19010        52.91946         1.04335
C         38.88011        52.19484         1.28816
C         40.17706        54.33284         1.02455
C         38.90492        55.04157         0.84206
C         40.11639        57.21116         1.27637
C         38.88434        56.50131         0.85501
C         40.14732        58.75523         1.24733
C         38.90735        59.48649         0.83839
C         40.23146        61.51764         0.36489
C         38.99837        60.90141         0.38983
C         42.72862        35.69078         0.13450
C         42.73644        37.20121         0.16977
C         41.56255        37.88262         0.48772
C         42.72891        39.99892         0.45453
C         41.54410        39.28784         0.65517
C         42.75799        41.46249         0.81169
C         41.44748        42.14584         0.39253
C         42.54026        44.37447        -0.05626
C         41.49787        43.62637         0.78831
C         42.67653        45.79049         0.46670
C         41.43926        46.46962         0.68519
C         42.64043        48.58265         1.17903
C         41.40027        47.86903         0.87693
C         42.66260        50.05523         1.14424
C         41.41489        50.75115         1.13000
C         42.63416        52.92844         1.20169
C         41.40651        52.20480         1.13873
C         42.61810        54.32905         1.18217
C         41.39864        55.05554         1.10750
C         42.58622        57.24920         1.36739
C         41.40923        56.50919         1.20748
C         42.61191        58.67727         1.23592
C         41.44290        59.39978         1.01916
C         42.66761        61.38519         0.25587
C         41.46890        60.79605         0.57160
C         45.14389        33.07754        -1.19343
C         43.98589        33.70388        -0.72933
C         45.17270        35.82260        -0.60473
C         43.98815        35.07190        -0.42812
C         45.18841        37.25213        -0.31091
C         43.95389        37.91770         0.00163
C         45.17062        40.07135         0.05791
C         43.94123        39.33406         0.14236
C         45.14898        41.51609         0.03825
C         43.93517        42.19096         0.19107
C         45.17459        44.38765        -0.19543
C         43.84776        43.59983        -0.17628
C         45.14990        45.81020         0.18593
C         43.91451        46.44550         0.51175
C         45.18494        48.60786         0.84134
C         43.96047        47.82496         1.02911
C         45.15256        50.02830         1.00633
C         43.90050        50.71947         1.17340
C         45.18702        52.91281         1.41722
C         43.87341        52.15630         1.64201
C         45.16359        54.39149         1.29106
C         43.88225        55.13475         0.99187
C         45.14532        57.25879         1.31084
C         43.87132        56.50771         1.67059
C         45.17432        58.62248         1.13936
C         43.92083        59.46004         1.27790
C         45.18607        61.37300         0.27653
C         43.92361        60.56214         0.20713
C         46.31569        33.81709        -1.37193
C         47.59686        35.97361        -1.38397
C         46.34009        35.18702        -1.08741
C         47.64741        37.33455        -0.72301
C         46.38890        37.97056        -0.33398
C         47.62781        40.11645        -0.09696
C         46.38917        39.38399        -0.08113
C         47.62553        41.49329        -0.18191
C         46.39141        42.23094        -0.14301
C         47.65348        44.36514         0.05879
C         46.42319        43.63829        -0.06456
C         47.62942        45.78522         0.24240
C         46.37967        46.48883         0.35275
C         47.62107        48.62847         0.53633
C         46.38274        47.91732         0.56841
C         47.61326        50.07440         0.66737
C         46.38098        50.74083         0.89058
C         47.64611        52.94130         0.82371
C         46.32974        52.22389         0.68746
C         47.64118        54.41827         0.52490
C         46.39359        55.14856         0.95437
C         47.66062        57.24372         1.39249
C         46.37872        56.50182         1.13428
C         47.64573        58.67068         0.94241
C         46.41759        59.32575         0.85477
C         47.64408        61.43249         0.41679
C         46.39607        60.74216         0.51815
C         48.82794        37.99326        -0.60072
C         50.14987        40.13023        -0.18507
C         48.90243        39.33367         0.09073
C         50.15592        41.49974        -0.29807
C         48.87336        42.24970        -0.56487
C         50.10528        44.37822        -0.03339
C         48.88871        43.68096        -0.07791
C         50.11541        45.79617         0.18966
C         48.85906        46.49958         0.32807
C         50.08944        48.67662         0.52471
C         48.83047        47.91538         0.43780
C         50.04655        50.10678         0.04073
C         48.81922        50.81055         0.54441
C         50.12168        52.92668         0.68779
C         48.84874        52.23618         0.69478
C         50.15500        54.34134         1.19267
C         48.90431        55.13033         0.92210
C         50.16237        57.22883         1.05105
C         48.91506        56.48995         1.03670
C         50.12926        58.64421         0.91166
C         48.89055        59.34474         0.80063
C         50.10402        61.46902         0.43196
C         48.87003        60.77045         0.55057
C         51.36266        42.25987        -0.30329
C         52.56009        44.41096        -0.30845
C         51.35968        43.66798        -0.22706
C         52.56356        45.81512        -0.17647
C         51.34348        46.48975         0.14906
C         52.58186        48.70428        -0.03705
C         51.39455        47.93809         0.37416
C         52.55310        50.13772         0.04270
C         51.34904        50.83910         0.24007
C         52.59348        52.98290         0.45833
C         51.33679        52.25280         0.46877
C         52.62546        54.38997         0.65165
C         51.41241        55.11139         0.89128
C         52.68501        57.25128         1.18336
C         51.39082        56.50638         0.98124
C         52.59336        58.72143         0.84872
C         51.38623        59.37178         0.77626
C         52.54208        61.53433         0.36303
C         51.33933        60.81810         0.53611
C         53.74916        46.58720        -0.38258
C         55.00455        48.72465        -0.76788
C         53.74892        47.98582        -0.36875
C         54.99554        50.19652        -0.41753
C         53.79485        50.87293        -0.07254
C         55.02521        53.00528        -0.01496
C         53.80224        52.28115         0.13839
C         55.05070        54.42756         0.12122
C         53.85607        55.12527         0.47034
C         55.05408        57.24923         0.26457
C         53.88146        56.53985         0.57367
C         54.96278        58.74304         0.02613
C         53.90902        59.46962         0.88028
C         54.95456        61.59753         0.03886
C         53.81266        60.91477         0.42589
C         56.18549        50.90645        -0.53327
C         57.43378        53.04382        -0.51158
C         56.22165        52.30870        -0.34599
C         57.46582        54.41600        -0.38901
C         56.26692        55.14488        -0.08425
C         57.46689        57.30585        -0.41128
C         56.25977        56.57201        -0.05557
C         57.48183        58.72260        -0.42094
C         56.31079        59.43738         0.11594
C         57.43487        61.61552        -0.58783
C         56.28253        60.97814         0.02541
C         58.79080        55.12533        -0.51662
C         59.80054        57.32075        -1.12304
C         58.67572        56.61607        -0.72277
C         59.80067        58.74112        -1.21172
C         58.62822        59.45122        -0.80539
C         59.75427        61.56290        -1.39875
C         58.59732        60.89686        -0.89687
C         60.93152        59.45764        -1.67205
C         60.89285        60.85245        -1.76344
O         45.46062        53.73697         2.59127
O         56.58823        60.22200         1.27489
O         36.30765        51.51066         2.17663
O         44.48558        43.98342        -1.44500
O         34.92377        55.40624        -2.16599
O         34.91484        59.23904        -2.77171
O         50.87344        48.39657         1.70497
O         43.34051        48.00880         2.34344
O         40.01018        58.02999         2.49603
O         37.74704        59.26129         1.71835
O         47.63217        54.50138        -0.95637
H         46.87306        53.93907        -1.25063
O         43.94541        55.40999        -0.43790
H         43.99456        54.55646        -0.91762
O         47.72226        57.32306         2.86874
H         47.60160        56.41314         3.21787
O         56.16502        48.08124        -0.22586
H         56.11172        48.12893         0.75057
O         50.17268        54.19779         2.67753
H         50.52184        55.03782         3.04880
O         43.68885        52.02923         3.08426
H         44.13580        52.80939         3.49363
O         48.95877        39.04255         1.54018
H         49.71631        38.43760         1.68710
O         54.36660        59.43575         2.26484
H         53.93672        60.17374         2.74502
O         54.51163        58.88572        -1.35225
H         55.07133        58.31617        -1.92065
O         38.61812        52.40881         2.69900
H         39.34664        51.99810         3.20930
O         48.80640        42.35936        -2.03389
H         47.96609        42.81573        -2.25446
O         43.89792        56.27044         3.10329
H         43.57269        57.07359         3.55999
O         43.98404        60.13326         2.56194
H         44.11013        59.45913         3.26105
O         35.97700        55.43301         1.74723
H         35.40124        54.69138         2.07660
O         45.90446        52.39082        -0.75471
H         46.41032        51.72771        -1.27476
O         43.92843        59.86791        -1.08466
H         43.91645        60.54584        -1.79212
O         59.59441        54.52680        -1.54214
H         59.12054        54.61540        -2.39400
O         48.76331        35.20551        -1.06178
H         48.73152        34.99177        -0.10707
O         37.32439        59.16536        -1.90252
H         36.54983        59.25203        -2.54385
O         40.50579        39.91565         2.69949
H         41.28039        40.49036         2.91396
O         37.86990        52.50773        -0.90442
H         38.64926        52.99041        -1.25207
O         42.89154        41.48535         2.26554
H         43.73442        41.03830         2.49128
O         52.91768        57.17647         2.63892
H         53.63214        57.83475         2.83551
O         49.87805        49.98549        -1.42821
H         49.88008        50.89420        -1.79776
O         34.46196        53.23618         1.88234
H         34.76579        52.52960         2.50541
O         41.88426        43.72481         2.17611
H         41.75467        44.65273         2.46534
O         41.99449        44.52138        -1.40225
H         42.77701        44.60323        -1.99967
O         41.38183        41.99563        -1.04773
H         41.32097        42.89144        -1.46455
O         41.57378        35.20574        -0.56690
H         41.62734        35.51764        -1.49327
O         34.91030        58.82772         0.86342
H         35.61950        58.62744         1.51318
H         30.00863        56.33062        -2.34649
H         28.64701        58.40868        -2.49037
H         30.46128        62.26026        -1.72780
H         28.48398        60.87332        -2.28653
H         32.04848        52.10782        -1.04304
H         31.13348        54.35549        -1.88473
H         32.85332        62.43553        -1.08974
H         34.33363        47.98548         0.25500
H         33.19737        50.05255        -0.29250
H         35.29574        62.57088        -0.45192
H         36.80268        43.74363         0.79872
H         35.55209        45.88622         0.58517
H         37.77667        62.67377         0.00442
H         39.39601        39.42595         1.01736
H         38.11277        41.62527         1.27823
H         40.30350        62.56612         0.03777
H         42.61681        35.32581         1.19566
H         40.63939        37.30579         0.64738
H         42.68815        62.41985        -0.12140
H         45.13304        32.00286        -1.42268
H         43.05889        33.12889        -0.59560
H         45.16636        62.43910         0.00031
H         47.22924        33.33092        -1.74232
H         47.63313        36.13865        -2.49898
H         47.63590        62.51137         0.20124
H         49.76097        37.49508        -0.90791
H         51.11207        39.60332        -0.06616
H         50.08453        62.55280         0.24281
H         52.32713        41.72874        -0.30288
H         53.50547        43.88568        -0.50927
H         52.48862        62.60301         0.10490
H         54.68654        46.06392        -0.62194
H         55.10448        48.64681        -1.88861
H         54.85972        62.62416        -0.34742
H         57.10829        50.37119        -0.80016
H         58.36005        52.50301        -0.75512
H         57.36367        62.67599        -0.87204
H         59.35504        54.96714         0.44681
H         60.71585        56.76493        -1.37490
H         59.74114        62.65919        -1.48032
H         61.83505        58.90760        -1.97045
H         61.77455        61.39495        -2.13298
