         244
 CSIRO Nanostructure Databank - Neutral Graphene Oxide Data Set
C          1.35208         1.94265         0.46639
C          1.28604         3.34468         0.26694
C          2.54662         1.27996         0.35872
C          2.41604         4.08761        -0.07174
C          1.26620         6.26773         0.24793
C          1.26196         7.69243         0.24889
C          2.36427         5.54658        -0.15777
C          2.40108         8.42355        -0.05016
C          1.16880        10.62033        -0.26356
C          1.18248        11.96304        -0.45546
C          2.40949         9.91022         0.22613
C          2.39887        12.72883        -0.33971
C          1.25397        14.78350         0.55530
C          1.25852        16.05814         0.98636
C          2.30952        14.23715        -0.40071
C          2.33092        17.00649         0.61629
C          2.47992        18.30197         1.29264
C          3.74720         1.98406        -0.01697
C          3.67131         3.41372        -0.26944
C          4.94391         1.29257        -0.10235
C          4.86019         4.15304        -0.54519
C          3.52564         6.28295        -0.78438
C          3.60150         7.75073        -0.42558
C          4.84286         5.57177        -0.62742
C          4.81171         8.45297        -0.58043
C          3.65702        10.60424        -0.26779
C          3.62336        12.05994        -0.32244
C          4.80938         9.90406        -0.53695
C          4.87258        12.77387        -0.35434
C          3.63648        14.90516        -0.13094
C          3.63463        16.35024         0.07725
C          4.85158        14.21128        -0.15096
C          4.88338        17.04820         0.35933
C          3.64184        19.00412         1.22993
C          4.88545        18.41318         0.76330
C          6.14789         1.94663        -0.70529
C          6.13262         3.44577        -0.51590
C          7.46607         1.29704        -0.37904
C          7.30505         4.13918        -0.45340
C          6.03630         6.32187        -0.71784
C          6.05311         7.74086        -0.75530
C          7.30812         5.57620        -0.77311
C          7.31316         8.47572        -0.77119
C          6.03618        10.64074        -1.03736
C          6.08389        12.07823        -0.56742
C          7.32745         9.89596        -0.78786
C          7.31932        12.74217        -0.48464
C          6.08175        14.90936         0.02871
C          6.10717        16.32497         0.26645
C          7.32460        14.13607        -0.01084
C          7.32104        17.04342         0.37986
C          6.10154        19.10225         0.89596
C          7.35703        18.44475         0.69765
C          8.60620         2.00038        -0.14868
C          8.54923         3.49052         0.09165
C          9.88465         1.35577         0.07057
C          9.84402         4.22146        -0.18342
C          8.60520         6.32400        -0.75131
C          8.55606         7.79434        -0.67957
C          9.84932         5.61192        -0.37324
C          9.78256         8.49678        -0.69874
C          8.55099        10.60305        -0.78710
C          8.57204        12.06891        -0.68028
C          9.77722         9.90175        -0.83801
C          9.79362        12.75796        -0.65541
C          8.62512        14.88847        -0.03765
C          8.57779        16.37504         0.04135
C          9.83404        14.27047        -0.72637
C          9.86703        17.03874         0.38915
C          8.57888        19.11257         0.90569
C          9.86465        18.36016         1.14062
C         11.05544         2.07087         0.17224
C         11.06225         3.52267        -0.00410
C         12.30880         1.42256         0.52865
C         12.27943         4.23698         0.04024
C         11.05468         6.34955        -0.27850
C         11.04290         7.78387        -0.52009
C         12.25775         5.64163        -0.00375
C         12.23624         8.50434        -0.53293
C         11.04223        10.62565        -1.24586
C         11.05435        12.07560        -0.80509
C         12.30365         9.90320        -0.81626
C         12.25471        12.72250        -0.65136
C         11.07795        14.84290        -0.09533
C         11.07288        16.16849         0.48619
C         12.33082        14.03550         0.07820
C         12.38720        16.94267         0.53007
C         11.13136        19.10222         0.77565
C         12.31328        18.43301         0.50739
C         13.49396         2.08118         0.56425
C         13.60815         3.49945         0.05012
C         14.71333         1.43001         1.18728
C         14.69908         4.27487         0.81984
C         13.50493         6.39661         0.21153
C         13.48860         7.85136        -0.10847
C         14.79623         5.68545         0.31127
C         14.75858         8.46870        -0.57642
C         13.51877        10.59033        -0.80889
C         13.50613        12.05765        -1.15477
C         14.77990         9.92873        -0.70439
C         14.80438        12.76317        -0.84159
C         13.57291        14.86384        -0.24908
C         13.59188        16.24793         0.01369
C         14.77360        14.20290        -0.62328
C         14.76848        17.01450        -0.18608
C         13.53571        19.12733         0.27224
C         14.75061        18.46506         0.01664
C         16.01805         2.14757         0.91266
C         16.01664         3.54746         0.77224
C         17.23315         1.45420         0.92177
C         17.23747         4.26680         0.68626
C         16.00459         6.34395         0.15999
C         16.04515         7.71422        -0.42354
C         17.24585         5.68977         0.42721
C         17.28999         8.50598        -0.41939
C         16.01082        10.59269        -0.84438
C         15.98886        12.04611        -0.92601
C         17.25656         9.86890        -0.72782
C         17.27360        12.76077        -1.03302
C         15.97179        14.96001        -0.68168
C         15.96941        16.35797        -0.51651
C         17.24848        14.25444        -0.93755
C         17.21593        17.15787        -0.86135
C         15.96568        19.17597        -0.00022
C         17.21730        18.56098        -0.27869
C         18.46656         2.15310         0.88847
C         18.45644         3.56749         0.81552
C         19.72571         1.46124         0.88659
C         19.72175         4.34360         1.05164
C         18.49104         6.39115         0.27492
C         18.51353         7.82889        -0.06231
C         19.69278         5.71968         0.44392
C         19.69812         8.54750         0.07376
C         18.57532        10.55559        -1.04033
C         18.56075        12.05967        -0.82726
C         19.77232         9.91939        -0.35093
C         19.74272        12.75759        -0.73237
C         18.49491        14.92071        -0.46525
C         18.47377        16.41165        -0.42356
C         19.78246        14.19981        -0.55707
C         19.78215        17.10756        -0.52467
C         18.40627        19.22220        -0.03981
C         19.73172        18.62662        -0.28962
C         20.92367         2.15776         0.75727
C         20.96729         3.56254         0.73224
C         22.19145         4.28786         0.59868
C         20.98279         6.42989         0.09345
C         20.90661         7.85718         0.69056
C         22.22045         5.64045         0.41619
C         22.17368         8.64989         0.54153
C         20.97466        10.60246        -0.33137
C         21.04511        11.99797        -0.92797
C         22.17772         9.93317         0.11886
C         22.25274        12.79814        -0.51818
C         20.97363        14.89188        -0.34529
C         21.00901        16.34629        -0.21790
C         22.21175        14.12756        -0.30009
C         22.14307        17.07168         0.10169
C         20.94862        19.21577         0.26313
C         22.09641        18.47841         0.35828
O         15.34393         7.76789        -1.72745
O         17.35107        13.63999        -2.25435
O          8.06211         5.82365        -2.03792
O          2.67074        17.06405        -0.80035
O         13.43444         7.43194         1.30044
O         11.84470        16.33253         1.76077
O         18.30927        15.65219         0.80913
O         19.88970        18.02990        -1.63198
O          9.37844        17.09175        -0.99029
O          8.21083        14.29277         1.20950
O         12.48068        13.67691         1.49682
H         12.35227        14.51529         2.00531
O          3.24986         6.25256        -2.24506
H          2.41647         6.75001        -2.38888
O         17.23642        17.29213        -2.30332
H         17.15800        16.39965        -2.70179
O          2.40482        10.03762         1.69288
H          2.46737        10.99461         1.89831
O         21.17037        11.79148        -2.38597
H         21.16699        12.67674        -2.80921
O          5.98544         1.75654        -2.16479
H          5.18634         2.25720        -2.43683
O         11.04655        10.60494        -2.70530
H         11.80635        11.17329        -2.99123
O          1.87812        14.59409        -1.75139
H          1.95618        15.57791        -1.80948
O          8.38716         3.63298         1.55658
H          9.15659         3.19157         1.97689
O         19.77532         4.56756         2.52526
H         19.77996         3.68108         2.94581
O         21.01357         6.62622        -1.35130
H         21.02119         5.74493        -1.77969
O          5.90098        10.69227        -2.49865
H          5.08191        11.19139        -2.70310
O         14.50998         1.45228         2.61840
H         14.37534         2.39841         2.86477
O          9.90324        18.06436         2.57420
H         10.69667        17.49633         2.72806
O         14.07199         3.43155        -1.32607
H         13.37753         2.99404        -1.86163
O          9.75558        14.63047        -2.13967
H          9.74732        15.61677        -2.18593
O         13.40153        12.12161        -2.63464
H         14.22471        11.73401        -3.00476
O         14.24846         4.30855         2.21482
H         14.67133         5.07664         2.65453
O         20.66806         7.70040         2.11390
H         20.64272         8.59152         2.51925
O         18.77180        10.35594        -2.47385
H         19.65605        10.74307        -2.69926
H          0.43584         1.39673         0.73125
H          0.31484         3.84044         0.39723
H          2.60708         0.19682         0.53659
H          0.37467         5.75897         0.64053
H          0.35842         8.20717         0.60282
H          0.22762        10.05964        -0.35955
H          0.25898        12.49209        -0.73317
H          0.43535        14.11374         0.86119
H          0.47968        16.41431         1.67906
H          1.61152        18.71134         1.83050
H          4.96148         0.21041         0.09767
H          3.69729        20.00326         1.68753
H          7.51565         0.20011        -0.47259
H          6.09251        20.15361         1.22036
H          9.91123         0.25750         0.14526
H          8.55835        20.18302         1.16147
H         12.26027         0.37180         0.85630
H         11.13052        20.20267         0.77910
H         14.78645         0.35496         0.88317
H         13.53780        20.22418         0.35693
H         17.23663         0.35595         0.99219
H         15.95453        20.24288         0.27070
H         19.72975         0.36270         0.91905
H         18.37612        20.22958         0.40443
H         21.86516         1.59664         0.65409
H         23.13785         3.72495         0.64319
H         23.19115         6.14171         0.28793
H         23.11210         8.18755         0.88117
H         23.13304        10.47464         0.08447
H         23.22944        12.29436        -0.51070
H         23.14911        14.65685        -0.07921
H         23.09797        16.56052         0.28555
H         20.91607        20.24732         0.64355
H         23.01094        18.95594         0.73862
