         651
 CSIRO Nanostructure Databank - Neutral Graphene Oxide Data Set
C          5.81165        31.80775         1.55038
C          5.86419        33.17523         1.61627
C          8.20205        27.42905         1.34322
C          8.12272        28.76378         1.64629
C          6.91391        29.56437         1.52680
C          8.28034        31.61230         1.26886
C          6.97093        30.94052         1.47098
C          8.31499        33.10985         1.26178
C          7.09619        33.94222         1.52043
C          8.49876        36.00514         1.32316
C          7.17805        35.30769         1.66947
C          8.98803        37.45438         1.85656
C         10.73176        23.09183         0.77381
C         10.71287        24.52188         1.07608
C          9.49390        25.28361         1.09147
C         10.61799        27.32441         1.84794
C          9.44911        26.66659         1.42169
C         10.58079        28.68864         2.40013
C          9.26505        29.50575         2.34284
C         10.72263        31.58337         2.06748
C          9.56503        30.80703         1.47954
C         10.70063        33.00265         2.12802
C          9.57725        33.73724         1.68088
C         10.59889        35.75688         2.52885
C          9.58233        35.10813         1.82797
C         10.30165        37.18806         2.81417
C          9.59169        38.31767         0.79607
C         10.76255        40.35704         0.31259
C          9.48634        39.67377         0.64454
C         10.90793        41.43986        -0.53264
C         13.27065        18.80762         0.00769
C         13.17129        20.18933         0.30005
C         11.96096        20.91837         0.37618
C         13.16255        22.94811         1.15460
C         11.88213        22.29325         0.79014
C         13.16562        24.44493         1.25843
C         11.91281        25.21962         1.27186
C         13.10892        27.53050         1.55558
C         11.93453        26.60009         1.89960
C         13.16637        28.80202         2.13589
C         11.89582        29.44318         2.53437
C         13.12687        31.64178         2.53901
C         11.89767        30.92343         2.42827
C         13.10770        33.05087         2.65162
C         11.84852        33.71594         2.58081
C         12.96704        35.88905         3.29050
C         11.78422        35.10747         2.80948
C         12.85303        37.36189         2.88183
C         11.62371        37.96429         2.64834
C         13.16988        39.88408         0.83520
C         11.83914        39.84306         1.16735
C         13.43960        41.58330        -0.48619
C         12.13534        42.20553        -0.76468
C         13.56568        44.13208        -1.29700
C         12.18353        43.51375        -1.15747
C         13.60247        45.60177        -1.57824
C         15.96640        14.71550        -0.79099
C         15.91005        16.10524        -0.60882
C         14.64770        16.76958        -0.36524
C         15.73702        19.01931        -0.38375
C         14.52292        18.13826        -0.17016
C         15.74959        20.18635         0.59699
C         14.43515        20.86494         0.72809
C         15.73798        23.08748         0.92738
C         14.43923        22.36191         0.57946
C         15.64432        24.52159         0.77246
C         14.37283        25.03465         0.68407
C         15.55243        27.62045         1.16318
C         14.27093        27.11933         0.88004
C         15.59498        28.86165         1.83555
C         14.39330        29.52194         2.18680
C         15.56570        31.70098         2.32667
C         14.40497        30.95351         2.45056
C         15.50782        33.18178         2.04209
C         14.29859        33.85337         2.63440
C         15.44038        36.03107         2.69649
C         14.26380        35.24433         2.82223
C         15.40266        37.46650         2.66586
C         14.13192        38.05149         2.86451
C         15.58798        40.30428         1.36986
C         14.30273        39.87981         1.69623
C         15.73141        41.54059         0.53015
C         14.51903        42.24611        -0.00276
C         15.76021        44.46615        -0.07390
C         14.42002        43.76828        -0.06490
C         15.87263        45.73561        -0.56101
C         14.75046        46.35188        -1.30383
C         15.94048        48.59411        -1.25218
C         14.79999        47.71282        -1.63174
C         16.18284        49.54828        -2.37970
C         18.59166        10.50035        -1.47543
C         18.44645        11.84383        -0.91219
C         17.22943        12.62779        -1.11244
C         18.44103        14.76321        -0.82002
C         17.20615        14.01380        -0.88645
C         18.36811        16.17518        -0.82096
C         17.13773        16.84365        -0.68616
C         18.36100        18.98425        -0.03169
C         17.09315        18.31987        -0.50555
C         18.33456        20.31095         0.68153
C         17.01480        20.98094         0.82990
C         18.18733        23.25001         0.65503
C         16.96216        22.46351         0.81963
C         18.12605        24.64341         0.59670
C         16.84089        25.36037         0.53469
C         18.06483        27.60437         1.03879
C         16.79020        26.89039         0.77622
C         18.06965        28.92180         1.38365
C         16.87964        29.55239         1.98141
C         18.07576        31.84604         1.85066
C         16.87593        31.05101         2.23667
C         18.01637        33.29624         2.04205
C         16.79679        33.90061         2.32226
C         18.00413        36.13232         2.68723
C         16.72637        35.30986         2.70366
C         17.87119        37.60791         2.56885
C         16.65654        38.26941         2.48944
C         17.92873        40.41607         2.08005
C         16.70478        39.70963         2.07058
C         18.02212        41.82330         1.68907
C         16.91463        42.39589         0.87422
C         18.20948        44.47879         0.63523
C         16.79402        43.91877         0.88595
C         18.24399        45.94600         0.27044
C         17.10372        46.51172        -0.38159
C         18.45645        48.41983        -1.03778
C         17.17969        47.81110        -0.88947
C         18.61314        49.50228        -1.95540
C         17.46562        49.98532        -2.70549
C         18.95321        51.47667        -3.98437
C         17.67786        50.95389        -3.72595
C         19.16218        52.44568        -5.01625
C         21.15319         6.77316        -3.46380
C         21.09653         8.01537        -2.74992
C         19.91170         8.62065        -2.38339
C         21.04779        10.58483        -1.38424
C         19.84504         9.90568        -1.71032
C         21.02457        11.87858        -0.67894
C         19.71309        12.60221        -0.52514
C         20.92326        14.75909        -0.72025
C         19.71760        14.08064        -0.69830
C         20.92932        16.20859        -0.99117
C         19.61954        17.01547        -1.00915
C         20.88982        18.95835         0.11567
C         19.60887        18.10971         0.12150
C         20.84025        20.46270         0.20081
C         19.57406        21.15909         0.56560
C         20.63276        23.38558         0.13858
C         19.46086        22.62812         0.41110
C         20.65731        24.78078         0.30240
C         19.38568        25.39850         0.72237
C         20.63910        27.62339         0.92372
C         19.35008        26.86156         0.98979
C         20.56624        29.10928         1.03923
C         19.21590        29.78733         0.94074
C         20.37479        31.98546         0.94471
C         19.21322        31.20763         1.43846
C         20.30684        33.48279         1.06520
C         19.19147        34.10418         1.81720
C         20.33872        36.28769         1.80916
C         19.20125        35.48347         2.08878
C         20.39733        37.63929         2.19166
C         19.18112        38.32412         2.78493
C         20.35481        40.47368         2.46580
C         19.15905        39.78018         2.42278
C         20.35332        41.96706         2.60656
C         19.16046        42.55871         1.90817
C         20.54346        44.68673         1.57365
C         19.17497        44.06585         1.77260
C         20.50960        46.18761         1.37405
C         19.44041        46.65585         0.38303
C         20.86031        48.49656        -0.53473
C         19.58972        47.87393        -0.35571
C         21.03554        49.50260        -1.50719
C         19.90257        50.00830        -2.23125
C         21.37623        51.54466        -3.49610
C         20.08410        51.01211        -3.23324
C         21.54387        52.53420        -4.50850
C         20.41622        52.95193        -5.28938
C         21.94434        54.53011        -6.57819
C         20.57728        53.89619        -6.46115
C         22.09881        55.61196        -7.47477
C         23.62424         4.41789        -4.95483
C         22.41125         4.96372        -4.53545
C         23.56296         7.15041        -4.07552
C         22.34048         6.26374        -3.97122
C         23.63363         8.22284        -3.01705
C         22.38674         8.61300        -2.33643
C         23.57738        10.78475        -1.71041
C         22.34824         9.93872        -1.60877
C         23.55335        12.14248        -1.10318
C         22.29278        12.64670        -0.45439
C         23.50365        14.90497        -0.42590
C         22.20076        14.14758        -0.13048
C         23.49702        16.26686        -0.54712
C         22.20703        16.94970        -0.80411
C         23.31187        19.21422        -0.78408
C         22.16593        18.37089        -0.36476
C         23.18322        20.58072        -0.84714
C         21.89464        21.23796        -0.53185
C         23.08848        23.51721        -0.60814
C         21.82841        22.73694        -0.46256
C         23.06819        24.93697        -0.32829
C         21.85135        25.57151         0.11338
C         22.99168        27.79061         0.11265
C         21.84969        26.97263         0.37272
C         22.92138        29.21591         0.22687
C         21.73573        29.91108         0.62508
C         22.97408        32.03787         0.81386
C         21.66491        31.29542         0.69726
C         22.87813        33.53994         0.68183
C         21.57581        34.25809         0.83676
C         22.77729        36.18882         1.99711
C         21.57293        35.75464         1.10743
C         22.93990        37.72566         1.84925
C         21.60928        38.36761         2.19093
C         22.81762        40.47097         2.61225
C         21.60415        39.76244         2.46201
C         22.86753        41.89652         2.49829
C         21.68062        42.61183         2.25135
C         23.02389        44.66453         1.82657
C         21.71586        44.00234         1.87678
C         23.10683        46.03347         1.41491
C         21.88975        46.80823         1.15028
C         23.36028        48.46864        -0.15856
C         22.02192        48.03568         0.24344
C         23.48544        49.52202        -1.10132
C         22.34255        50.03382        -1.79269
C         23.80915        51.61085        -3.01875
C         22.51058        51.06185        -2.75721
C         23.94678        52.62526        -3.99343
C         22.83961        53.09033        -4.74940
C         24.35914        54.60967        -6.04902
C         23.01069        54.07631        -5.78843
C         24.52767        55.76444        -7.00968
C         23.31062        56.30858        -7.63203
C         24.62121        58.26175        -8.30040
C         23.41913        57.54448        -8.30694
C         24.83592         5.09973        -4.77760
C         26.06025         7.05310        -3.92416
C         24.86719         6.39843        -4.22453
C         26.08213         8.32414        -3.27168
C         24.82828         8.87823        -2.76879
C         26.06435        10.82177        -1.88205
C         24.87658        10.13174        -2.03568
C         26.12928        12.11004        -1.13260
C         24.85021        12.74607        -0.66007
C         26.07439        15.01457        -0.54016
C         24.80546        14.20554        -0.32149
C         25.93208        16.47035        -0.73796
C         24.69615        17.08877        -0.70649
C         25.68409        19.29530        -1.31384
C         24.57963        18.53482        -0.96476
C         25.58550        20.72360        -1.67276
C         24.25126        21.43727        -1.39089
C         25.42453        23.70179        -1.40426
C         24.22544        22.89405        -1.09574
C         25.47906        25.09250        -0.91396
C         24.25816        25.70790        -0.47867
C         25.41495        27.86995        -0.47214
C         24.22948        27.13355        -0.28053
C         25.31670        29.34112        -0.55235
C         24.02025        30.03659        -0.31953
C         25.39513        32.20087         0.15856
C         24.03345        31.57111        -0.20950
C         25.37227        33.55298         0.73038
C         24.17197        34.21879         0.95412
C         25.34933        36.16005         2.16250
C         24.09784        35.44585         1.78660
C         25.27458        37.57586         2.67709
C         24.10138        38.27315         2.66551
C         25.30011        40.49075         3.25932
C         24.01278        39.71059         3.01969
C         25.35018        41.90872         2.85933
C         24.15514        42.58598         2.53728
C         25.44610        44.76667         2.51425
C         24.18861        43.97875         2.21499
C         25.56604        46.01483         1.66928
C         24.37715        46.65202         1.21382
C         25.75962        48.52718         0.38403
C         24.49219        47.89111         0.48750
C         25.80531        49.83431        -0.30912
C         24.75157        50.15126        -1.28748
C         26.25513        51.76677        -2.38818
C         24.93840        51.17388        -2.22636
C         26.48127        52.68645        -3.51899
C         25.30093        53.14403        -4.30654
C         26.73640        55.02993        -5.24565
C         25.35134        54.52674        -4.90872
C         26.82835        56.14362        -6.12505
C         25.73767        56.60798        -6.88174
C         25.74873        57.82853        -7.59196
C         27.27673         9.00249        -3.03948
C         28.49659        10.99449        -2.26543
C         27.30790        10.26904        -2.38318
C         28.53206        12.35152        -1.81019
C         27.32852        12.97162        -1.30681
C         28.46229        15.14743        -1.33965
C         27.29789        14.34155        -1.06168
C         28.40899        16.55551        -1.31984
C         27.16170        17.24654        -0.93616
C         28.11204        19.38925        -2.04931
C         27.03222        18.71251        -1.24020
C         28.04848        20.88723        -1.80848
C         26.84684        21.52087        -1.70926
C         27.99010        23.79955        -1.56780
C         26.75664        23.01193        -1.75641
C         27.95254        25.15266        -1.27685
C         26.69577        25.80890        -0.95559
C         27.81564        28.04141        -0.99690
C         26.66791        27.23229        -0.73479
C         27.60799        29.44448        -1.11841
C         26.53835        30.15785        -0.58780
C         27.87018        32.06809         0.55233
C         26.58283        31.54216        -0.12230
C         27.83522        33.54450         0.95530
C         26.63737        34.20882         1.08054
C         27.81916        36.07053         2.34941
C         26.63286        35.69018         1.48263
C         27.79441        37.37862         3.08645
C         26.52305        38.18632         3.20042
C         27.84538        40.43190         3.24735
C         26.56778        39.69699         3.38788
C         27.85983        41.78913         3.03213
C         26.64053        42.56949         2.81015
C         27.97836        44.65333         2.49176
C         26.71423        43.94155         2.56019
C         28.00137        45.99817         2.05253
C         26.81995        46.64348         1.53659
C         28.19729        48.63947         0.87464
C         26.91765        47.94965         0.93560
C         28.28159        50.01221         0.33060
C         27.09943        50.59270        -0.38371
C         28.63805        52.05776        -1.77022
C         27.30952        51.48715        -1.53897
C         28.77457        53.11273        -2.75042
C         27.72727        53.49195        -3.56337
C         27.82506        54.55930        -4.51611
C         29.71170        13.10108        -1.89357
C         30.88237        15.28145        -1.76090
C         29.70833        14.50253        -1.66544
C         30.83154        16.68848        -1.71036
C         29.55491        17.34022        -1.60525
C         30.62928        19.49764        -2.03039
C         29.47275        18.75863        -1.82613
C         30.55916        20.94433        -2.37322
C         29.26713        21.66362        -2.13383
C         30.55428        23.88476        -1.83422
C         29.28345        23.09161        -1.68999
C         30.47054        25.34864        -1.69508
C         29.23651        25.90590        -1.12784
C         30.49339        28.22441        -1.03609
C         29.18006        27.46147        -0.95725
C         30.57714        29.63844        -0.66011
C         29.48581        30.51813        -0.78375
C         30.40332        32.16239         0.66020
C         29.24723        31.64759         0.01241
C         30.32692        33.42010         1.35033
C         29.08984        34.15039         1.44448
C         30.30785        35.91787         2.82902
C         29.10222        35.40511         2.05771
C         30.34088        37.42373         3.03043
C         29.09128        38.08744         3.38918
C         30.37316        40.29984         3.14877
C         29.10369        39.66243         3.46207
C         30.35119        41.72405         2.66204
C         29.17771        42.52056         3.24229
C         30.45381        44.56261         2.59366
C         29.20531        43.95146         2.73914
C         30.54337        46.01610         2.41441
C         29.24807        46.77331         2.10551
C         30.66637        48.61232         1.09152
C         29.35119        48.05402         1.37460
C         30.80079        49.75492         0.31060
C         29.65067        50.58734        -0.00920
C         29.73263        51.62588        -1.05460
C         32.00473        17.50002        -1.73640
C         33.09301        19.72313        -1.68987
C         31.91791        18.88431        -1.83045
C         33.07191        21.07173        -1.90690
C         31.87953        21.69020        -2.60880
C         33.06405        23.99055        -2.24384
C         31.77984        23.23038        -2.41618
C         33.04267        25.44057        -1.79890
C         31.69406        26.14395        -1.64875
C         33.03283        28.22139        -0.97918
C         31.67587        27.51563        -1.09254
C         32.97889        29.43098        -0.07226
C         31.73962        30.17497        -0.04850
C         32.85338        32.06524         1.07363
C         31.64089        31.45958         0.51825
C         32.76914        33.52386         1.26365
C         31.55074        34.09219         1.69968
C         32.80117        36.08820         2.41211
C         31.58349        35.39354         2.24956
C         32.81433        37.46099         2.86949
C         31.54784        38.12338         3.10228
C         32.83348        40.26594         3.14082
C         31.56012        39.57503         3.15036
C         32.87245        41.70575         3.01638
C         31.67471        42.42952         2.85155
C         32.95880        44.49602         2.54378
C         31.69301        43.82513         2.67329
C         33.00975        45.85182         2.17032
C         31.83139        46.61031         1.99128
C         31.85405        47.88158         1.43154
C         34.27273        21.87308        -1.77556
C         35.56151        24.02997        -1.83084
C         34.30968        23.21313        -2.00570
C         35.29999        25.02013        -0.66131
C         34.19188        25.98578        -1.03863
C         35.35401        27.82883         0.08115
C         34.19455        27.29175        -0.62395
C         35.32574        29.10420         0.62289
C         34.12238        29.90768         0.53603
C         35.46405        31.90323         1.33497
C         34.12558        31.26884         1.13108
C         35.77156        33.19682         1.08203
C         33.87985        34.35348         1.17672
C         35.35957        36.12276         2.12904
C         34.00228        35.53475         1.90063
C         35.33661        37.50704         2.67172
C         34.02626        38.15708         2.95014
C         35.28774        40.26378         3.68397
C         34.02939        39.54689         3.23834
C         35.43940        41.58979         2.91154
C         34.13666        42.37647         2.91429
C         34.16131        43.73440         2.66511
C         36.54378        25.69647        -0.17774
C         37.74646        27.57952         0.82558
C         36.55785        27.01033         0.24182
C         37.75335        28.84509         1.41995
C         36.46258        29.56209         1.45697
C         37.82552        31.62171         2.14281
C         36.51780        31.03476         1.88417
C         37.94642        33.09018         2.26693
C         36.85895        33.95146         1.74957
C         37.73994        35.86347         3.11967
C         36.46878        35.16749         2.63291
C         37.71805        37.25594         3.40347
C         36.55408        38.07782         3.30553
C         36.52883        39.40456         3.68432
C         38.90232        29.44482         2.01309
C         40.13245        31.50453         2.91076
C         38.94143        30.81539         2.38451
C         40.09996        32.77829         3.37214
C         38.80464        33.57548         3.41146
C         38.86349        35.08644         3.40180
O          8.83354        29.90397         3.57724
O         24.78418        35.19544         3.09325
O         27.59631        36.10644         3.80915
O         29.66402        21.31321        -3.51234
O         14.13492        26.15069        -0.12092
O         35.64280        37.22414         1.22953
O         26.06227        51.00777         0.56480
O         11.46120        39.35075         2.44924
O         21.79637        11.81393         0.62217
O         17.14410        30.09638         3.32078
O         25.64701        14.57962         0.80068
O         13.45268        40.17333        -0.52030
O         36.07930        29.99218         2.80226
O         27.41088        18.28771         0.09806
O         25.63522        11.94560         0.25829
O         23.38738        12.00139        -2.55224
O         11.26028        28.84755         3.70886
O         16.85834        41.68166        -0.40927
O         15.00768        20.14709         1.85851
O         38.13873        33.90712         1.04924
O         19.88788        32.83708        -0.19291
O         22.55273         8.69172        -0.86897
O         14.08602        39.43128         3.01402
O         29.85878        46.79587         3.44384
O         17.51806        35.58072         3.93398
O         24.37947        29.66361        -1.70025
O         25.88451        23.54093        -2.79769
O         33.29238        31.38979         2.34070
O         28.57944        30.17867        -1.78051
O         17.72953        20.38870         1.99117
O         17.93580        19.12655        -1.41250
O         34.90995        33.97391         0.31345
O         26.17723        52.12872        -4.86698
O         21.89493        48.16093         1.72603
O         19.41786        25.93397         2.14176
O         26.47219        38.78737         4.52613
O          8.33623        32.36083        -0.00485
O         21.87074        18.44528         1.08085
O         16.78600        26.32275        -0.58199
O         30.18283        23.22789        -0.52837
O         21.41081        22.00386        -1.68584
O         24.86191        54.37154        -7.38548
O         24.39837        40.16029         4.36159
O         28.90588        50.98503         1.21580
O         24.65674        21.05337        -2.74395
O         13.34263        23.56890         2.44110
O         20.61534        20.86870         1.58297
O         29.12050        38.81487         4.64463
O         22.13990        33.98823        -0.49386
O         32.39701        23.88727        -3.54908
O         18.90362        12.04272         0.52451
O         20.85331        28.32419         2.22452
O         32.55494        26.26012        -2.91132
O         29.32011        26.54660         0.19194
O         21.76662        16.60992        -2.16559
O          8.50539        36.03157        -0.11737
H          9.43117        36.15470        -0.42064
O         16.27064        44.28052         2.19262
H         17.03041        44.35025         2.83111
O         30.11701        41.66827         1.21666
H         30.89849        41.24848         0.79920
O         27.82377        31.33546         1.82887
H         28.49576        31.72549         2.42933
O         13.72327        44.22872         1.11653
H         14.39608        44.33752         1.83127
O         35.83078        41.33999         1.55781
H         35.21381        40.68764         1.16651
O         26.78878        36.47206         0.26565
H         26.12632        36.16817        -0.39021
O         35.06646        40.67227         5.06603
H         34.85817        39.87246         5.59262
O         32.19324        21.45903        -4.00116
H         31.41576        21.74733        -4.52835
O         33.32378        28.77371        -2.30161
H         33.19231        28.03016        -2.94189
O         19.55287        54.90229        -6.43631
H         19.65464        55.42175        -5.61278
O         15.33153        33.29100         0.57061
H         14.49567        32.83104         0.33985
O          9.99433        30.30891         0.19334
H          9.64936        30.94172        -0.48015
O         22.02808        14.28084         1.29930
H         21.74323        13.39807         1.64256
O         30.19436        35.34176         4.17357
H         29.28797        35.56523         4.50271
O         29.39110        42.58168         4.67411
H         28.65806        43.09285         5.07666
O         14.22509        43.49545        -2.44102
H         13.72616        43.73592        -3.24943
O         23.66128        32.10048        -1.49174
H         23.95007        31.44161        -2.16630
O         22.34763        35.91954         3.34353
H         23.15454        35.70861         3.87351
O         34.80786        24.17882         0.42996
H         34.73981        24.73461         1.23512
O         35.87684        24.74502        -3.02451
H         35.04540        24.99784        -3.47736
O         20.16366        42.25110         4.04256
H         19.75536        43.14787         4.10172
O         23.46994        31.78805         2.15330
H         23.38458        30.83291         2.35750
O         21.57773        36.39856        -0.19022
H         21.83769        35.70100        -0.84587
O         25.27298        45.25124         3.90430
H         24.47955        45.82870         3.91604
O         19.51016        17.42668         1.37559
H         20.36658        17.53010         1.85310
O         19.52578        17.63657        -2.29667
H         20.35221        17.43501        -2.79754
O         12.99766        35.86043         4.74303
H         12.09270        36.05476         5.06821
O         18.73519        43.79718        -0.53627
H         17.99598        43.58928        -1.14737
O         15.56415        49.36101        -0.04130
H         16.31468        49.95367         0.17567
O         35.83036        34.57817         3.79574
H         36.49736        34.02525         4.27988
O         38.09255        33.18856         4.64083
H         38.64655        33.44523         5.40802
O         20.04434        46.74702         2.65982
H         20.44598        47.65063         2.72019
O         18.70772        44.53781         3.08451
H         19.02262        45.47501         3.19598
O         12.16644        26.30824         3.32472
H         11.88937        27.11522         3.83299
O         23.37797         7.87548        -5.34895
H         24.19876         8.38645        -5.51631
O         15.47036        19.63503        -1.67792
H         16.33548        19.77461        -2.12843
O         14.33098        22.52248        -0.87243
H         14.44255        23.47165        -1.09753
O         24.83949        55.40719        -3.85883
H         25.03961        56.33335        -4.11087
O         27.77385        19.18676        -3.44761
H         28.35004        19.79458        -3.96880
O         18.97579        29.92610        -0.50888
H         19.20629        30.84139        -0.78720
O         19.34736        38.28088         4.24265
H         20.10406        38.86076         4.47703
O          9.91793        37.34560         4.18942
H          9.91303        38.30273         4.40084
O         23.33396        38.09955         0.50445
H         22.61750        37.78505        -0.10535
O         10.61657        37.67109         0.14269
H         11.03469        38.28863        -0.49482
H          4.82809        31.31880         1.62889
H          4.92340        33.73432         1.73548
H          7.31494        26.90731         0.94871
H          5.93364        29.05991         1.53078
H          6.26748        35.89398         1.87060
H          8.20808        37.99828         2.42693
H          9.77096        22.62450         0.50654
H          8.54778        24.77096         0.85979
H          8.66153        40.23168         1.10972
H          9.99864        41.82147        -1.02355
H         12.34681        18.21478        -0.09012
H         11.02552        20.41201         0.08935
H         11.27312        44.10326        -1.34280
H         12.77185        46.07103        -2.12918
H         15.03260        14.13372        -0.79790
H         13.74903        16.13595        -0.30225
H         13.94337        48.16619        -2.15371
H         15.31759        49.95779        -2.92218
H         17.68566         9.99433        -1.83952
H         16.29520        12.10174        -1.36053
H         16.81653        51.31367        -4.30774
H         18.30176        52.78267        -5.61275
H         20.22603         6.18830        -3.57104
H         18.96008         8.14503        -2.66526
H         20.39977        53.30321        -7.40252
H         21.20111        55.98251        -7.99198
H         23.63960         3.40079        -5.37106
H         21.49634         4.35458        -4.58064
H         24.66876        59.22125        -8.83460
H         22.53905        57.95904        -8.81904
H         25.78421         4.59747        -5.01974
H         27.01891         6.56113        -4.15026
H         27.78600        56.68315        -6.19148
H         26.65031        58.45737        -7.56715
H         28.22150         8.57286        -3.40496
H         29.42848        10.55220        -2.64861
H         29.73750        53.64153        -2.81208
H         28.80885        55.03182        -4.66321
H         30.64373        12.61055        -2.21101
H         31.85064        14.78042        -1.90722
H         31.79440        50.04470        -0.06250
H         30.72300        52.04997        -1.27909
H         32.99158        17.01896        -1.66952
H         34.02338        19.24353        -1.34823
H         33.98396        46.31642         1.95692
H         32.82342        48.32139         1.15244
H         35.20136        21.35107        -1.49494
H         36.42992        23.37437        -1.57332
H         36.24844        42.20132         3.38120
H         35.12506        44.24846         2.53415
H         37.43847        25.07075        -0.03693
H         38.66437        26.97228         0.82564
H         38.63514        37.71191         3.80921
H         37.43388        39.85728         4.11884
H         39.82391        28.84767         2.08684
H         41.07682        30.93942         2.94878
H         41.01511        33.23136         3.78537
H         39.77936        35.58590         3.75743
