         280
 CSIRO Nanostructure Databank - Neutral Graphene Oxide Data Set
C         30.19440        31.87206        -0.79884
C         30.21433        33.06293        -0.45895
C         30.46529        36.08647         1.03633
C         30.58866        37.28476         1.29318
C         30.42537        40.50806         0.79795
C         30.31435        41.66703         0.40245
C         32.46416        28.79340        -0.95484
C         31.43888        29.47069        -1.11529
C         32.54553        31.45903        -0.19172
C         31.17748        30.80150        -0.57225
C         32.55291        32.97441        -0.21087
C         31.31333        33.63708         0.44020
C         32.83097        35.87078         0.53969
C         31.52825        35.11324         0.74258
C         33.01623        37.38875         0.88513
C         31.70338        38.22546         1.20960
C         32.81903        40.43825         0.33203
C         31.64004        39.69751         0.97430
C         32.71524        41.81432        -0.25790
C         31.08554        42.56046        -0.46133
C         32.57479        44.49507        -0.33385
C         31.51649        43.92577        -0.05855
C         35.23882        27.11758        -0.04191
C         35.09676        28.41036        -0.73672
C         33.82586        29.19001        -0.58371
C         35.09648        31.46307        -0.76201
C         33.85008        30.71050        -0.35158
C         35.10755        32.97801        -0.77751
C         33.79909        33.74583        -0.56952
C         35.21922        35.91158        -0.37006
C         33.80665        35.30224        -0.49856
C         35.25393        37.39995        -0.28193
C         33.92176        38.10546        -0.11906
C         35.22314        40.30089        -0.57461
C         33.91832        39.59585        -0.24409
C         35.22282        41.76314        -0.97500
C         33.81892        42.47911        -1.12345
C         35.14957        44.74604        -0.49502
C         33.88760        44.02018        -0.77784
C         35.33053        45.97459         0.28652
C         37.54264        27.16183         0.75526
C         36.20054        26.61429         0.53465
C         37.55308        28.62443         0.25810
C         36.39574        29.18062        -0.55750
C         37.72441        31.42163        -0.77063
C         36.41478        30.68217        -0.78586
C         37.71375        32.94397        -0.69214
C         36.40526        33.63366        -0.33110
C         37.71610        35.84018         0.27859
C         36.40467        35.09141         0.04946
C         37.73231        37.38106         0.62378
C         36.42276        38.14223         0.29777
C         37.68929        40.43094         0.22239
C         36.41591        39.63935         0.09099
C         37.71865        41.86837        -0.21931
C         36.57932        42.57250        -1.01676
C         37.76236        44.77775        -0.06908
C         36.52154        44.07352        -0.58611
C         37.68587        45.97307         0.91423
C         36.30453        46.47025         0.85039
C         40.03858        24.26445         0.95087
C         39.01314        24.94681         0.83960
C         40.10012        27.04215         0.13755
C         38.81111        26.39727         0.83090
C         40.13144        28.53156         0.41342
C         38.88797        29.31964         0.23515
C         40.27697        31.45322        -0.26296
C         39.00663        30.67579        -0.43867
C         40.39275        32.96800        -0.61512
C         39.00802        33.70812        -0.65053
C         40.24417        35.92569        -0.34438
C         38.99112        35.12787        -0.09005
C         40.16940        37.42694        -0.37919
C         38.90433        38.13834        -0.01287
C         40.28078        40.32113         0.16478
C         38.97480        39.61669         0.33015
C         40.31771        41.80777        -0.01114
C         39.06485        42.55316        -0.31016
C         40.30634        44.70443         0.46491
C         39.08236        44.04536        -0.07835
C         40.26693        46.12744         0.91640
C         38.94850        46.64965         1.40606
C         40.12303        48.58847         2.39267
C         39.08862        47.99534         1.98748
C         42.65133        24.34504         1.37152
C         41.40298        24.72878         0.70432
C         42.70452        27.06015         0.64825
C         41.41580        26.26503         0.44147
C         42.68763        28.56253         0.65212
C         41.36307        29.28207         0.68446
C         42.71552        31.52017         0.60221
C         41.39459        30.78759         0.51229
C         42.70256        33.00741         0.52622
C         41.34759        33.72780         0.35924
C         42.76156        35.96717         0.20776
C         41.51946        35.18214        -0.11995
C         42.75718        37.42871        -0.12985
C         41.49526        38.16198        -0.51590
C         42.82704        40.50590        -0.27688
C         41.52973        39.65229        -0.34493
C         42.78846        41.66668         0.70505
C         41.49466        42.43521         0.70662
C         42.79307        44.67963         1.03879
C         41.49420        43.92070         0.93294
C         42.78693        46.16825         0.73904
C         41.43850        46.83107         0.75420
C         42.73907        48.69396         2.31301
C         41.41148        48.79924         1.86787
C         43.69718        24.98902         1.47314
C         45.23349        27.17558         1.29879
C         43.94431        26.42489         1.32249
C         45.23719        28.50292         0.52629
C         44.00240        29.31306         0.84371
C         45.18030        31.42541        -0.18201
C         44.03056        30.77316         0.55467
C         45.18558        32.93550        -0.23418
C         44.02931        33.71762         0.34338
C         45.35086        35.94219        -0.00399
C         44.06481        35.20687         0.27866
C         45.35216        37.42740        -0.09660
C         44.05627        38.15963        -0.33482
C         45.36313        40.15077         0.51261
C         44.09122        39.64975        -0.19681
C         45.42147        41.66952         0.74537
C         44.09180        42.39200         0.99278
C         45.40166        44.65678         1.10352
C         44.09170        43.89586         1.16148
C         45.37756        46.16007         1.31629
C         44.07604        46.91280         1.18720
C         43.78843        48.20498         1.81581
C         47.62757        27.26393         0.97692
C         46.61406        26.67837         1.34995
C         47.92168        28.35042         0.01550
C         46.48915        29.16000        -0.00726
C         47.65331        31.49101         0.26326
C         46.51961        30.66357        -0.44436
C         47.78310        32.94451        -0.30176
C         46.49130        33.67831        -0.49294
C         47.90283        35.91646        -0.51297
C         46.56447        35.18945        -0.49245
C         47.88502        37.41861        -0.08585
C         46.60309        38.11845        -0.66243
C         47.80043        40.40135        -0.50345
C         46.54645        39.62683        -0.31366
C         48.02529        41.79705         0.09301
C         46.68794        42.46605         0.51498
C         47.72267        44.75957        -0.22962
C         46.54102        43.96521         0.34055
C         47.59135        46.14610         0.24137
C         46.59160        46.71597         0.68457
C         50.25705        28.99515         1.21726
C         49.10659        29.26108         0.32461
C         50.07218        31.67263         0.78572
C         48.98880        30.76460         0.25409
C         50.22320        32.84778        -0.14481
C         49.07284        33.74011        -0.22520
C         50.50002        35.84967        -0.62901
C         49.17734        35.11519        -0.40743
C         50.43454        37.40986        -0.72927
C         49.15664        38.17347        -0.52821
C         50.22208        40.40215        -1.42791
C         49.01131        39.61920        -0.99733
C         50.25142        41.87867        -1.02576
C         48.86518        42.58591        -0.97511
C         50.23621        44.56442        -0.77857
C         48.96357        44.07634        -0.59311
C         51.14675        29.72688         1.66851
C         52.32729        32.12168         1.60142
C         51.20250        31.19591         1.68181
C         52.63154        33.21419         1.10348
C         52.65091        33.99032        -0.10298
C         52.93402        36.43227        -0.28239
C         51.95264        35.30414        -0.39923
C         52.81042        37.45211        -0.98488
C         51.60473        38.17133        -1.37912
C         52.66016        40.57537        -1.63771
C         51.53182        39.63339        -1.67818
C         52.61570        41.80848        -1.57961
C         51.58141        42.70192        -1.05423
C         51.32375        44.11866        -1.32481
O         39.98552        42.18239        -1.37786
O         41.47929        39.03145        -1.66854
O         41.10787        30.22237         1.81930
O         46.73434        40.43631        -1.50395
O         36.19056        34.06455         1.05626
O         49.23774        39.95712        -2.39460
O         44.23914        39.00496        -1.50108
O         47.19748        33.10951        -1.62454
O         35.34637        40.68481        -1.95286
O         44.27151        30.24593         1.90759
O         51.22533        32.91503        -0.91211
O         44.06825        43.00095         2.30489
O         46.33683        41.99662         1.84552
O         31.92105        39.15840         2.28047
O         47.14459        35.66857        -1.73063
O         32.60302        35.13193         1.75550
O         37.14884        30.95833        -2.01717
O         35.02533        32.23046        -2.00537
O         37.32645        44.96290        -1.43966
O         44.72775        32.13237        -1.37091
O         50.15799        38.05573         0.54926
O         36.01652        28.51165        -1.82215
O         34.53331        44.80724        -1.80428
O         51.32382        35.31838        -1.70826
O         43.69344        46.77485        -0.21597
O         41.89709        41.59528         1.83075
O         49.45625        30.00412        -0.88331
O         39.17718        37.84119        -1.39365
O         37.47610        41.52690         1.17257
O         38.23415        45.63977         2.19339
O         35.53638        36.74016        -1.54163
O         51.04615        42.13457         0.16385
O         31.64592        30.86385         0.77953
O         45.68706        45.28100         2.40362
O         32.81167        33.38692        -1.57748
O         45.56446        36.79963         1.17373
O         39.81832        39.89256         1.47800
O         40.05638        44.66958        -0.97900
O         45.58102        28.41441        -0.87174
O         41.03452        35.43099        -1.46555
O         38.25735        27.00065         1.99992
O         42.92531        27.80031        -0.58631
O         33.38103        38.72244        -1.29929
O         51.46518        38.64537        -2.72436
O         38.52620        35.16230         1.27883
O         37.92465        29.48925         1.36900
O         50.02628        31.87176         2.23627
O         36.02176        39.03479         1.36439
O         39.99375        30.70097        -1.49695
O         38.30324        33.54610        -1.89870
O         33.19322        41.63495         1.08587
O         44.29037        34.48396         1.54294
O         33.94600        29.76485         0.75541
O         41.95105        44.40959         2.21248
O         41.39995        48.22892         0.52711
O         42.61090        36.96247         1.25747
O         42.72648        32.34344         1.81994
O         46.56740        44.36704        -1.05766
O         44.40118        27.18425         2.46996
O         41.64227        25.23381        -0.60573
O         45.33659        39.52887         1.80063
H         45.79742        40.10529         2.44909
O         31.11059        33.05623         1.71239
H         30.41903        33.55657         2.19251
O         48.82117        41.67672         1.26811
H         48.23081        41.66513         2.05488
O         40.69855        33.77250         1.62733
H         41.23298        33.24586         2.27294
O         53.69220        33.79413        -0.89522
H         53.64969        34.36630        -1.69023
O         48.11516        27.79780        -1.26224
H         48.25086        28.53010        -1.90242
O         33.24027        35.79569        -1.71481
H         33.83968        35.59893        -2.46560
O         39.80958        26.89692        -1.26708
H         40.39705        26.19353        -1.63310
O         46.64012        37.99798        -2.07601
H         46.60153        38.90359        -2.47058
O         30.70246        42.47843        -1.77343
H         31.39108        42.86985        -2.35626
O         47.84685        37.50863         1.33763
H         48.77118        37.55936         1.67446
O         40.99572        33.01099        -1.90180
H         40.36229        32.62330        -2.54640
O         33.80018        37.39324         2.08259
H         33.34265        36.83286         2.74906
O         46.78258        30.59585        -1.83509
H         46.28748        31.31926        -2.28818
O         33.40142        42.38676        -2.48171
H         34.12452        42.71352        -3.05942
O         37.96628        37.49776         2.02262
H         37.18717        37.18174         2.52425
O         48.19674        42.46466        -2.22194
H         48.58088        43.09269        -2.86711
O         47.24314        31.59316         1.63785
H         48.01328        31.81048         2.21166
O         42.91115        41.20853        -1.53570
H         42.89574        40.53026        -2.25103
O         36.96813        42.56130        -2.38861
H         37.48113        43.38241        -2.57681
