         280
 CSIRO Nanostructure Databank - Neutral Graphene Oxide Data Set
C        -10.87750         0.92232         0.06592
C        -10.04601         1.70239        -0.93610
C         -8.74182         0.95146        -1.20459
C         -7.42856         1.66467        -1.03211
C         -6.24421         0.81327        -0.66826
C         -4.89581         1.45278        -0.52883
C         -3.67701         0.81703        -1.06988
C         -2.49082         1.48853        -0.89467
C         -1.20804         0.68790        -0.68831
C          0.02879         1.45836        -1.11835
C          1.31432         0.74802        -1.37152
C          2.62043         1.55601        -1.25759
C          3.80824         0.71931        -0.77314
C          5.14716         1.43003        -0.90395
C          6.34208         0.63481        -0.31784
C          7.64577         1.35552        -0.65327
C          8.97174         0.59852        -0.61675
C          9.84765         1.24849         0.48599
C         11.10347         0.44114         0.73513
C         -9.82832         3.12143        -0.44685
C         -8.65362         3.79733        -0.37975
C         -7.32168         3.20406        -0.82240
C         -6.22591         3.52838         0.32689
C         -4.87421         2.88960        -0.05461
C         -3.66306         3.64491        -0.43661
C         -2.50227         2.93176        -0.68834
C         -1.20648         3.66925        -0.63816
C          0.07455         2.91331        -0.70797
C          1.26628         3.36439         0.09648
C          2.56920         2.69582        -0.21387
C          3.87702         3.37550         0.07644
C          5.06714         2.77330        -0.19613
C          6.37720         3.43645         0.21768
C          7.63924         2.81308        -0.34573
C          8.87392         3.54770        -0.00225
C         10.14428         2.73337         0.09014
C         -8.60626         5.18353         0.04548
C         -7.43818         5.80203         0.39214
C         -6.13223         5.04966         0.57695
C         -4.98455         5.81664        -0.05202
C         -3.70715         5.13570        -0.43047
C         -2.35622         5.88261        -0.39343
C         -1.27045         4.96116         0.13228
C         -0.05718         5.49307         0.80550
C          1.24796         4.73799         0.73374
C          2.54189         5.49013         0.83780
C          3.85440         4.78258         0.58413
C          5.10683         5.58069         0.42117
C          6.29812         4.89951        -0.24821
C          7.59161         5.65443        -0.06232
C          8.78932         4.94804         0.12088
C         -7.39463         7.18771         0.80777
C         -6.20091         7.81403         1.04364
C         -4.91698         7.05205         0.82921
C         -3.69159         7.92527         0.67882
C         -2.40018         7.25424         0.31164
C         -1.26922         7.70512         1.24519
C          0.05212         6.93287         1.30460
C          1.16854         7.69824         0.52428
C          2.59003         7.02427         0.92110
C          3.66941         7.68813         0.07948
C          5.00770         7.03366         0.08668
C          6.28130         7.82493         0.31278
C          7.53434         7.14802        -0.32673
C         -6.08793         9.01741         1.85007
C         -4.89919         9.54005         2.22865
C         -3.60851         9.22639         1.51714
C         -2.30985         9.15221         2.36525
C         -1.10176         9.18397         1.46007
C          0.09609         9.81646         1.49418
C          1.27853         9.17752         0.92066
C          2.45742         9.82672         0.73066
C          3.53697         9.20153        -0.13706
C          4.88599         9.88987        -0.10955
C          6.08331         9.28735        -0.02304
C        -10.89688        -0.41495         0.11718
C        -10.12036        -1.27725        -0.85547
C         -8.81435        -0.57922        -1.23798
C         -7.54781        -1.36802        -1.25502
C         -6.28001        -0.64965        -0.89002
C         -4.99624        -1.37810        -1.15227
C         -3.70685        -0.64465        -1.34457
C         -2.42356        -1.41055        -1.31436
C         -1.24463        -0.74079        -1.21664
C          0.01624        -1.50149        -1.62940
C          1.35063        -0.76193        -1.42873
C          2.56405        -1.52327        -1.01400
C          3.76469        -0.74964        -0.55174
C          5.06644        -1.48321        -0.36731
C          6.37368        -0.82342        -0.82124
C          7.62740        -1.54579        -0.31407
C          8.81646        -0.89972        -0.35714
C         10.14022        -1.63530        -0.30143
C         11.19607        -0.86690         0.46286
C         -9.91736        -2.69417        -0.32468
C         -8.79929        -3.44046        -0.44932
C         -7.53733        -2.84672        -0.95549
C         -6.23241        -3.53504        -0.66485
C         -4.94081        -2.73872        -0.49336
C         -3.74846        -3.57842        -0.92814
C         -2.49268        -2.91203        -1.42487
C         -1.18129        -3.73856        -1.47422
C         -0.01546        -2.90705        -0.91413
C          1.28647        -3.66890        -0.76371
C          2.46622        -2.96548        -0.65883
C          3.67578        -3.63018        -0.13129
C          5.01625        -2.94746        -0.14119
C          6.30693        -3.69590        -0.48212
C          7.52750        -2.99162         0.18468
C          8.82071        -3.78390         0.05011
C         10.02754        -3.08950         0.06149
C         -8.79666        -4.93362        -0.15770
C         -7.46180        -5.51111         0.29813
C         -6.21906        -4.85435        -0.00068
C         -4.98904        -5.56603         0.08486
C         -3.65205        -4.91395        -0.21119
C         -2.58993        -5.84693        -0.84464
C         -1.24483        -5.12355        -0.82314
C         -0.07784        -5.79412        -0.58572
C          1.23280        -5.11770        -0.55925
C          2.40586        -5.83571        -0.35267
C          3.65345        -5.12598        -0.00760
C          4.94961        -5.85326         0.09556
C          6.23727        -5.19903        -0.21447
C          7.51494        -5.94030         0.17055
C          8.76933        -5.17347         0.24444
C         -7.43839        -6.71782         0.95050
C         -6.13710        -7.32543         1.40154
C         -4.97775        -6.87471         0.55878
C         -3.92033        -7.84696         0.08406
C         -2.57650        -7.18828        -0.13738
C         -1.42947        -7.87011         0.06364
C         -0.12997        -7.26292        -0.31582
C          1.12205        -8.01669        -0.00646
C          2.43251        -7.30214        -0.13392
C          3.65972        -7.92629         0.45151
C          4.93568        -7.16305         0.49361
C          6.14408        -7.87965         0.86287
C          7.36591        -7.25100         0.81474
C         -6.19462        -8.81578         1.60876
C         -5.10350        -9.59525         1.48117
C         -3.84480        -9.10054         0.92651
C         -2.69310        -9.79680         1.04429
C         -1.43046        -9.36416         0.34932
C         -0.18197        -9.85345         1.03011
C          1.06741        -9.26956         0.80633
C          2.24298        -9.82273         1.33559
C          3.51782        -9.04019         1.46646
C          4.79667        -9.84235         1.54234
C          5.99604        -9.26081         1.32884
O         -4.52143        -1.12903        -2.49036
O         -8.23819        -1.06994        -2.49514
O         -0.33991         3.76793        -1.81429
O          1.79136         2.32275         0.96306
O         -6.83383         3.81045        -1.94207
O          1.94222         4.84358         2.00758
O          3.39598        -8.32852         2.75229
H          3.41396        -8.99565         3.47058
O         -2.92636        -6.09266        -2.22397
H         -3.52770        -6.87431        -2.25784
O          5.12854        -2.02062         0.98864
O         -1.97147         6.12638        -1.75258
H         -2.64804         6.71994        -2.14713
O          6.52540        -3.51970        -1.92892
O         -3.09585        -4.51863         1.13240
O          6.97515        -5.94742        -1.23287
O          3.54067         0.18266         0.55640
O          6.45259        -0.84150        -2.25674
H          6.08151         0.00743        -2.61185
O         -6.72680         2.91939         1.49820
H         -6.09995         2.19324         1.75058
O          3.02963         9.37091        -1.48639
H          2.24758         8.75565        -1.56133
O         -4.75566         6.30157         2.11587
O         -7.98819         1.41338        -2.35591
O          2.31516        -1.23511        -2.44189
O          0.51306        -8.11322        -1.34902
O          3.43270        -4.25721         1.17433
O          0.42446         6.88173         2.69190
H         -0.30824         6.43362         3.17033
O        -10.77959         1.77358        -2.17880
H        -10.13226         2.02531        -2.87359
O         -3.47365        -3.50597        -2.33634
O         -1.42390       -10.02281        -0.96133
H         -0.69440        -9.59328        -1.47581
O          4.75127         5.10735         1.73548
O         -4.59782         1.80772         0.88354
O         -1.99303         7.71587         2.58932
O         -2.98991        -5.70957         1.94176
H         -3.87097        -5.75946         2.40051
O         -1.13155         0.58701         0.75553
H         -0.47788        -0.14287         0.99819
O          0.50743        -1.52444         0.98395
O         -4.38736        -8.26273        -1.25133
H         -5.14531        -8.87394        -1.13035
O          5.41244        -4.18019        -2.59003
H          5.80645        -5.05501        -2.83887
O         -6.83279        -3.60076        -1.99989
O          5.39184         1.60600        -2.31730
H          4.57572         1.98674        -2.73235
O          4.20458         7.10024        -1.13829
O         -1.11884         4.78750         1.56088
O          7.59299         2.33399        -1.73517
O          2.86890         2.14266        -2.54389
H          2.00507         2.14134        -3.03189
O         -9.82754        -5.27509         0.76826
H         -9.66798        -4.79182         1.60423
O         -0.40829        -2.59222         0.50781
H         -0.17874        -3.35435         1.09204
O          6.58942         3.33881         1.63193
H          5.82808         3.76104         2.10007
O          9.66296         0.80894        -1.85706
H          9.03785         0.63901        -2.59242
O          0.48639         1.24644        -2.48269
O          8.70419         7.79823         0.14994
H          8.55729         7.97272         1.10584
O         -0.90006        -4.04121        -2.84757
H         -1.73009        -4.41546        -3.22423
O          6.01914         4.90225        -1.67138
H          6.53803         4.18035        -2.09340
O          1.02347         7.53281        -0.82781
O          3.32751        -8.15977        -0.94885
O         -3.07283         8.17494        -0.61518
O         -5.76643         5.20639         2.01729
O          9.08059         1.24688         1.69548
H          9.57028         1.76274         2.36917
O        -10.91503        -1.42209        -2.05371
H        -10.28767        -1.55901        -2.79818
O         -4.64334         5.74228        -1.42756
O          6.23106         0.61361         1.10733
H          5.30651         0.36772         1.35295
O         -6.44365        -0.11780         0.47950
O         10.62809        -1.70367        -1.68739
H          9.90441        -2.06886        -2.24001
O         -5.85603        -6.74736         2.75363
H         -6.63290        -6.94379         3.32059
O         -0.13668        -1.67983        -3.03454
H          0.75083        -1.84194        -3.42622
O         -3.43617        10.35134         0.62330
H         -3.08174         9.99221        -0.22569
O          6.55034         7.74603         1.74300
H          5.75434         8.05054         2.22968
O         11.04933         3.27554         1.04887
H         11.28607         4.18874         0.78881
O          7.37323        -2.98852         1.61826
H          6.66042        -2.34882         1.85983
O          2.93141         7.39144         2.25087
H          2.27318         6.95406         2.84886
O         -4.79415        -2.47884         0.92362
H         -5.29366        -1.66182         1.15625
H         12.11740        -1.41481         0.71690
H         11.92585         0.95103         1.26175
H         10.63259         2.72066        -0.93147
H          9.70834         5.53365         0.29074
H          7.48608         7.28342        -1.44206
H          6.99862         9.89834        -0.07728
H          4.86315        10.97547        -0.29850
H          2.53532        10.90162         0.96211
H          0.19378        10.82782         1.91895
H         -2.31401         9.75541         3.30169
H         -4.88068        10.39657         2.91966
H         -7.01894         9.41976         2.27871
H         -8.34237         7.71721         0.98994
H         -9.54626         5.75781         0.06441
H        -10.75019         3.65808        -0.16547
H        -11.49944         1.50053         0.76731
H        -11.54115        -0.92571         0.85009
H        -10.82901        -3.19299         0.04388
H         -9.05512        -5.44969        -1.12377
H         -8.38393        -7.20879         1.22790
H         -7.12774        -9.23761         2.01374
H         -5.14727       -10.65653         1.77241
H         -2.67787       -10.74132         1.61124
H         -0.23150       -10.80033         1.58990
H          2.15745       -10.75135         1.92309
H          4.74254       -10.89111         1.87308
H          6.91879        -9.84399         1.47117
H          8.26021        -7.74251         1.22659
H          9.70922        -5.73091         0.38418
H         10.96773        -3.66517         0.07933
