         430
 CSIRO Nanostructure Databank - Neutral Graphene Oxide Data Set
C         27.95433        27.51165         0.67461
C         27.95798        28.88673         0.40397
C         26.72447        29.64672         0.34100
C         27.97514        31.60067        -0.54439
C         26.72153        30.95078        -0.00958
C         27.93546        33.11015        -0.50951
C         26.84374        33.78659        -0.99537
C         27.95618        35.96735        -0.80201
C         26.81179        35.20519        -1.04620
C         27.93958        37.42414        -0.81400
C         26.73050        38.14706        -0.86482
C         27.92041        40.26838        -0.69030
C         26.72048        39.53092        -0.78929
C         27.92023        41.70949        -0.56197
C         26.70959        42.45284        -0.50497
C         27.93759        44.53101        -0.22517
C         26.71464        43.82149        -0.33898
C         27.95936        45.94450        -0.03804
C         30.39694        27.47596         0.80086
C         29.14855        26.81475         0.84129
C         30.42552        28.88060         0.55470
C         29.20721        29.57887         0.30283
C         30.43869        31.68151         0.14180
C         29.22770        30.97424         0.02883
C         30.42607        33.16670         0.16472
C         29.12422        33.88263        -0.11961
C         30.41871        35.98715        -0.48551
C         29.18387        35.30483        -0.48845
C         30.41831        37.43120        -0.70364
C         29.16266        38.13554        -0.72476
C         30.40376        40.26733        -0.67034
C         29.15998        39.56040        -0.70216
C         30.40215        41.68194        -0.53495
C         29.15760        42.39833        -0.46051
C         30.40340        44.52536        -0.19387
C         29.16588        43.81699        -0.29538
C         30.40123        45.93970        -0.01658
C         29.14815        46.62234         0.06828
C         32.86814        24.69419         1.38850
C         31.67747        25.37485         1.22590
C         32.88073        27.48856         0.98654
C         31.64501        26.77190         1.00554
C         32.89288        28.90770         0.78766
C         31.66396        29.60096         0.56517
C         32.90914        31.81025         0.65280
C         31.64867        31.01387         0.39839
C         32.91400        33.20870         0.06794
C         31.69230        33.90682        -0.02163
C         32.93008        36.10110        -0.21870
C         31.64614        35.29873        -0.26755
C         32.83532        37.27344        -1.19517
C         31.61547        38.12358        -0.87328
C         32.86589        40.27858        -0.82785
C         31.64172        39.55706        -0.82254
C         32.87512        41.67967        -0.59375
C         31.63662        42.38607        -0.45616
C         32.86468        44.51218        -0.17532
C         31.63571        43.80576        -0.27171
C         32.85253        45.92347        -0.02812
C         31.65069        46.63547         0.06104
C         32.85647        48.70134         0.61792
C         31.71690        48.08465         0.24910
C         35.39134        23.20339         1.45783
C         35.37438        24.62435         1.40270
C         34.11465        25.37279         1.36164
C         35.35531        27.53537         1.27759
C         34.10035        26.77218         1.18515
C         35.39623        28.93201         0.78789
C         34.13577        29.63494         0.62371
C         35.35743        31.62578        -0.25174
C         34.13511        30.99688         0.35168
C         35.38926        33.14254        -0.20815
C         34.15856        33.89084        -0.17357
C         35.40747        35.96543        -0.75267
C         34.18349        35.27895        -0.43004
C         35.40666        37.31836        -1.13954
C         34.13302        38.05681        -1.29213
C         35.44858        40.26270        -0.94544
C         34.12450        39.55742        -1.15103
C         35.40861        41.71376        -0.59741
C         34.10563        42.41402        -0.46574
C         35.36166        44.51096        -0.01384
C         34.10546        43.78493        -0.22140
C         35.37945        45.87807         0.06500
C         34.13782        46.71323        -0.10986
C         35.41543        48.67942         0.86741
C         34.11190        47.89515         0.87644
C         35.44350        50.09770         1.14813
C         37.81984        23.14490         1.19119
C         36.57139        22.49437         1.37792
C         37.83093        24.56997         1.12824
C         36.60917        25.28855         1.28299
C         37.90412        27.44707         1.00893
C         36.65650        26.75678         1.35279
C         37.89927        28.95288         1.13821
C         36.60701        29.60049         0.66874
C         37.84449        31.61382        -0.00828
C         36.63699        30.96227         0.21991
C         37.82228        32.98246        -0.57766
C         36.58984        33.79994        -0.46019
C         37.88701        35.87068        -0.96755
C         36.65020        35.21219        -0.71179
C         37.92746        37.24795        -1.37814
C         36.66986        38.08157        -1.50194
C         37.83566        40.11092         0.06013
C         36.67135        39.41290        -0.62363
C         37.80917        41.59528         0.42782
C         36.57860        42.37787         0.01593
C         37.83392        44.40381         0.71875
C         36.57911        43.72812         0.19220
C         37.88708        45.87608         0.41074
C         36.66886        46.65135         0.01789
C         37.87904        48.67705         0.85848
C         36.62145        48.01458         0.68423
C         37.90050        50.02220         1.54222
C         36.60348        50.76400         1.36496
C         40.27341        20.29961         0.96992
C         39.09742        20.98967         1.13776
C         40.26682        23.12415         0.83563
C         39.05490        22.41466         1.05950
C         40.27277        24.55776         0.77524
C         39.06556        25.27374         0.92207
C         40.34294        27.40624         0.68356
C         39.07186        26.72140         0.84770
C         40.33309        28.84294         0.53092
C         39.13307        29.57589         0.54491
C         40.34289        31.62235        -0.07795
C         39.10117        30.93007         0.13586
C         40.37078        33.01303        -0.38707
C         39.13493        33.70089        -0.76478
C         40.36273        35.84378        -0.93955
C         39.13517        35.16874        -0.89435
C         40.41326        37.25651        -1.29962
C         39.14271        37.79635        -1.79363
C         40.27863        40.18760        -0.49024
C         39.22402        39.54173         0.09194
C         40.18959        41.68227        -0.76200
C         39.04827        42.34816        -0.01736
C         40.30949        44.45035         0.07946
C         39.07332        43.69308         0.20480
C         40.33403        45.82765         0.33460
C         39.08105        46.55512         0.44006
C         40.33477        48.71312         0.65113
C         39.08626        48.00802         0.59836
C         40.34441        50.13352         0.91743
C         39.15562        50.81873         1.26281
C         40.38028        52.91868         1.42340
C         39.19516        52.20540         1.50776
C         42.69769        20.28575         0.44920
C         41.49018        20.98782         0.69087
C         42.70059        23.11015         0.33735
C         41.48859        22.41047         0.63832
C         42.72429        24.54269         0.36297
C         41.52394        25.25389         0.59865
C         42.86491        27.38623         0.73683
C         41.53478        26.68501         0.61258
C         42.81030        28.82622         0.32811
C         41.57818        29.52745         0.31467
C         42.82247        31.68399         0.36088
C         41.55701        30.92914         0.11946
C         42.81764        33.08322        -0.15952
C         41.59390        33.73627        -0.40785
C         42.79159        35.87681        -0.53132
C         41.59084        35.15343        -0.65467
C         42.70370        37.36264        -0.29504
C         41.52908        38.01910        -0.98625
C         42.79315        40.21596        -0.55775
C         41.53936        39.53469        -1.06730
C         42.77198        41.61173        -0.43363
C         41.52471        42.35949        -0.42222
C         42.80769        44.43317         0.22080
C         41.53157        43.71098        -0.13297
C         42.74889        45.91723        -0.03205
C         41.56724        46.58251         0.21685
C         42.78133        48.74274         0.39260
C         41.55492        48.03524         0.38940
C         42.80883        50.16234         0.62957
C         41.57998        50.85071         0.87276
C         42.84059        52.94119         1.14859
C         41.59867        52.25273         1.13313
C         43.84427        20.96474         0.08269
C         45.03033        23.08972        -0.52011
C         43.86450        22.37914        -0.01336
C         45.09790        24.51594        -0.42484
C         43.96099        25.24385         0.06560
C         45.24561        27.33678        -0.17135
C         44.03232        26.63957         0.13278
C         45.26372        28.76868        -0.07135
C         44.04288        29.50555         0.09812
C         45.28084        31.61901        -0.08360
C         44.05998        30.91407         0.01838
C         45.27886        33.06656        -0.17911
C         44.04551        33.77232        -0.27090
C         45.26536        35.92249        -0.42331
C         44.02629        35.20058        -0.42048
C         45.24386        37.35927        -0.44863
C         44.02244        38.07408        -0.48544
C         45.26683        40.19688        -0.43269
C         44.02042        39.48569        -0.48803
C         45.25838        41.62129        -0.43712
C         44.02641        42.33133        -0.35188
C         45.26246        44.45671        -0.38245
C         44.05476        43.74293        -0.25221
C         45.26944        45.91383        -0.33696
C         43.96032        46.66312        -0.50896
C         45.20688        48.74552         0.00154
C         44.01459        48.07622         0.04255
C         45.35541        50.13699         0.56711
C         44.03419        50.87347         0.66701
C         44.02693        52.25561         0.94342
C         47.07813        23.08582        -1.81523
C         46.05145        22.38843        -1.18122
C         47.16041        24.46979        -1.67333
C         46.26108        25.22522        -0.87525
C         47.68696        27.36761        -0.63808
C         46.42009        26.64815        -0.60978
C         47.72429        28.74025        -0.29767
C         46.49408        29.47278        -0.14167
C         47.74357        31.64385         0.23863
C         46.48949        30.89165        -0.07178
C         47.72125        33.06338        -0.25764
C         46.51692        33.77170        -0.32638
C         47.71746        35.95815        -0.38992
C         46.49704        35.22345        -0.43694
C         47.70804        37.35050        -0.27423
C         46.48708        38.06631        -0.36302
C         47.74078        40.21548        -0.40083
C         46.49303        39.49462        -0.36897
C         47.72026        41.62074        -0.54506
C         46.49682        42.32964        -0.50982
C         47.73602        44.47297        -0.62119
C         46.49265        43.76111        -0.55197
C         47.70523        45.94591        -0.90372
C         46.43223        46.61211        -0.46024
C         47.67669        48.81483        -0.52898
C         46.36463        48.09612        -0.71541
C         47.58148        50.24224        -0.54140
C         46.43641        50.88416        -0.16717
C         50.38318        24.85542        -1.78406
C         49.14739        25.61772        -1.69532
C         50.25338        27.28577        -0.26697
C         48.98356        26.72368        -0.90899
C         50.23427        28.80008        -0.20660
C         48.98615        29.48773        -0.20508
C         50.22240        31.61431        -0.03667
C         48.99778        30.88850        -0.08915
C         50.25112        33.03827        -0.11252
C         48.99983        33.73112        -0.47090
C         50.26576        35.94297        -0.19343
C         49.00616        35.25225        -0.51258
C         50.25837        37.35561        -0.10742
C         48.95952        38.08579         0.13665
C         50.21823        40.23072        -0.25938
C         48.98279        39.52662        -0.28724
C         50.23844        41.64497        -0.41025
C         48.99626        42.34216        -0.88085
C         50.18961        44.53563        -0.43270
C         48.95898        43.81494        -0.58217
C         50.16830        45.97950        -0.35345
C         48.95325        46.68547        -0.50576
C         50.14618        48.80154        -0.23203
C         48.91129        48.10930        -0.45648
C         51.54128        25.39247        -1.35704
C         52.76980        27.40771        -0.34452
C         51.52812        26.86132        -1.02438
C         52.71311        28.76584         0.03767
C         51.44024        29.48414        -0.01614
C         52.64381        31.63944         0.35136
C         51.45136        30.91085         0.08688
C         52.66702        33.04680         0.31347
C         51.45272        33.75679         0.01768
C         52.69080        35.91857         0.13046
C         51.46538        35.20889        -0.04696
C         52.70065        37.34362         0.03630
C         51.46728        38.06246        -0.06593
C         52.65868        40.24251        -0.07232
C         51.46322        39.52570        -0.10267
C         52.65776        41.67237        -0.05918
C         51.42718        42.37661        -0.24688
C         52.62293        44.54579        -0.04019
C         51.40985        43.83007        -0.26853
C         52.61972        45.97554         0.01758
C         51.38761        46.69577        -0.13457
C         51.32880        48.12072        -0.08196
C         55.14833        27.37729         0.15807
C         53.99018        26.72215        -0.25965
C         55.12417        28.75125         0.46859
C         53.88893        29.43884         0.43195
C         55.14566        31.62746         0.95749
C         53.83897        30.87633         0.75670
C         55.13042        33.09559         0.73021
C         53.91151        33.77745         0.48902
C         55.13622        35.93091         0.48941
C         53.91667        35.20423         0.36164
C         55.13324        37.37747         0.37692
C         53.93328        38.05807         0.12641
C         55.15073        40.27483         0.33027
C         53.97170        39.52406        -0.23704
C         55.11105        41.69494         0.37038
C         53.87663        42.39495         0.13094
C         55.04920        44.54548         0.41225
C         53.84972        43.82569         0.16101
C         55.02682        45.96713         0.43632
C         53.85280        46.65671         0.24484
C         56.35685        29.48925         0.68140
C         56.38618        30.83567         0.82616
C         56.32926        33.83101         0.80552
C         56.33471        35.21162         0.69701
C         56.33029        38.14434         0.58292
C         56.31737        39.52659         0.61353
C         56.28779        42.46315         0.64565
C         56.26168        43.83414         0.65352
O         29.60249        33.65204         1.28559
O         34.06444        38.92991        -2.50205
O         38.43348        33.03988        -1.91582
O         49.09140        34.46263        -1.75068
O         43.81061        46.78629        -1.92942
O         35.69809        41.24711        -1.99579
O         36.03072        27.32952         2.58526
O         36.88138        39.28385         0.82377
O         48.10039        25.11574        -2.48055
O         54.31943        31.21949         2.10457
O         34.18235        47.30667        -1.45048
H         33.98691        46.59571        -2.09732
O         42.90130        44.35124         1.70332
H         42.03021        44.62940         2.06179
O         49.07503        42.28050        -2.36590
H         48.40965        42.91147        -2.71843
O         54.20805        39.53413        -1.70724
H         55.06424        39.07960        -1.86036
O         43.14371        27.40384         2.20099
H         42.32577        27.71394         2.64638
O         47.76689        31.75427         1.72609
H         46.90784        32.14345         1.99978
O         42.88294        31.83564         1.85137
H         42.87556        30.92834         2.22719
O         37.97720        49.71825         2.99507
H         37.26560        49.07075         3.18846
O         41.59680        39.86738        -2.49950
H         40.83946        39.41216        -2.93959
O         45.84140        49.98269         1.95408
H         45.14609        49.50739         2.45684
O         50.35602        26.77946         1.08616
H         49.61249        27.14777         1.60723
O         35.28133        31.29904        -1.69597
H         36.07531        31.68846        -2.12460
O         32.60951        36.69549        -2.50269
H         32.78892        37.40222        -3.16180
O         37.83890        41.58874         1.89833
H         37.18397        40.91688         2.19346
O         47.67497        46.03076        -2.38221
H         47.15666        46.85074        -2.61006
O         33.03166        36.69243         1.11609
H         33.02839        35.96055         1.76864
O         37.98753        29.23116         2.58194
H         37.25917        28.70512         2.99938
O         48.85463        38.14184         1.61938
H         49.62532        38.65404         1.94644
O         32.93616        32.03828         2.12334
H         32.04546        32.36095         2.38245
O         46.05256        48.21184        -2.15505
H         45.15682        47.73249        -2.27246
O         37.80828        44.31274         2.17601
H         37.84121        43.34665         2.39457
O         39.15744        38.87309        -2.60479
H         38.23094        39.04791        -2.93337
O         51.45748        27.55414        -2.30976
H         52.24839        27.30641        -2.83219
O         33.99694        47.31424         2.20700
H         33.87830        48.04482         2.84859
O         28.00745        31.26567        -1.98422
H         28.01228        30.28669        -2.05194
O         39.33148        38.35788         0.77355
H         38.42886        38.15139         1.11745
O         42.40351        37.51927         1.14675
H         41.43695        37.38711         1.26549
O         39.93366        41.93976        -2.17190
H         40.67518        41.50747        -2.66213
O         36.61037        38.53685        -2.87957
H         35.69567        38.89268        -3.05180
O         36.87031        46.96629        -1.40947
H         36.04697        47.42669        -1.70749
H         26.99561        26.97999         0.75963
H         25.79061        29.14300         0.63362
H         25.77933        31.51752        -0.03243
H         25.95657        33.22978        -1.32880
H         25.87175        35.69249        -1.33669
H         25.77242        37.61501        -0.93563
H         25.75204        40.04756        -0.80374
H         25.74420        41.93630        -0.58579
H         25.76628        44.37565        -0.28981
H         27.00514        46.48758         0.02302
H         29.09970        25.73610         1.03930
H         29.12902        47.71006         0.21721
H         32.83126        23.60825         1.54224
H         30.74181        24.80141         1.25861
H         32.84335        49.78513         0.80183
H         30.80372        48.68176         0.11526
H         34.45466        22.64314         1.57431
H         34.50188        50.66521         1.13609
H         36.52727        21.39901         1.44048
H         36.56867        51.84527         1.55806
H         40.28377        19.20159         1.02889
H         38.17605        20.42559         1.33443
H         40.39128        53.99929         1.62584
H         38.27835        52.73959         1.79148
H         42.70502        19.18856         0.52036
H         42.85443        54.02066         1.35688
H         44.75432        20.38690        -0.12726
H         44.97908        52.80093         1.00587
H         47.80757        22.56217        -2.44617
H         46.00434        21.29744        -1.28912
H         48.44042        50.83977        -0.88711
H         46.35541        51.97390        -0.29142
H         50.32797        23.83145        -2.18070
H         50.14714        49.89878        -0.17559
H         52.48122        24.82510        -1.41290
H         52.24640        48.70040         0.08423
H         56.10079        26.82967         0.20099
H         54.05319        25.66005        -0.53492
H         55.96408        46.51172         0.62060
H         53.87457        47.75368         0.27898
H         57.30155        28.92789         0.62148
H         57.35712        31.35038         0.86126
H         57.28000        33.31214         0.98711
H         57.29338        35.73853         0.78491
H         57.27387        37.63161         0.80898
H         57.24589        40.04312         0.89388
H         57.24049        41.95094         0.83417
H         57.18105        44.40408         0.85126
