         324
 CSIRO Nanostructure Databank - Neutral Graphene Oxide Data Set
C          1.98423         5.50955        -3.74425
C          0.60588         5.63723        -3.42128
C          1.25015         6.31438        -1.16430
C          0.22173         5.95393        -2.14987
C          1.13057         7.72032        -0.52966
C         -0.02068         8.55345        -0.89610
C          1.13229        10.59031        -0.17421
C          0.01017         9.90170        -0.76845
C          1.14324        11.98558        -0.02855
C          0.05148        12.85081        -0.43460
C          1.00096        14.80632         0.76997
C         -0.05760        14.14292        -0.02840
C          0.98582        16.28584         1.08071
C         -0.19986        17.07221         0.70187
C          1.07135        19.15804         0.56009
C         -0.15477        18.41941         0.51149
C          1.08133        20.58892         0.36435
C         -0.11361        21.35841         0.37119
C          1.13043        23.42847        -0.01618
C         -0.08082        22.72986         0.20135
C          1.14952        24.88215        -0.12218
C         -0.00906        25.66830         0.12219
C          1.25972        27.75731        -0.10111
C          0.05592        27.04904         0.14488
C          1.27493        29.13506         0.33183
C          4.29469         5.14667        -3.27571
C          2.99649         5.44555        -2.78172
C          3.68195         6.30607        -0.39755
C          2.61518         5.61114        -1.29156
C          3.56806         7.68499         0.23640
C          2.31665         8.43137        -0.01300
C          3.31622        10.38697         1.12410
C          2.25250         9.77570         0.27910
C          3.08243        11.80109         1.41898
C          2.20881        12.59685         0.73610
C          3.58495        14.81137         1.00791
C          2.31237        14.08511         0.73349
C          3.58126        16.29845         1.18477
C          2.27002        17.06053         1.43071
C          3.50726        19.11371         0.67867
C          2.29726        18.46289         0.82367
C          3.54861        20.47563         0.10217
C          2.30733        21.26962         0.15079
C          3.59388        23.33584        -0.34784
C          2.34325        22.67065        -0.07079
C          3.54208        24.74819        -0.76181
C          2.33993        25.55798        -0.47562
C          3.63047        27.62082        -0.89475
C          2.39950        26.98587        -0.52628
C          3.65114        29.75260        -0.01416
C          2.34328        29.97996         0.53087
C          6.76437         4.81522        -2.77313
C          5.40481         4.81420        -2.48177
C          6.19678         6.51884        -0.30631
C          5.05056         5.80966        -0.56530
C          6.06168         7.80606         0.35737
C          4.83857         8.42195         0.52912
C          6.04191        10.52531         1.41676
C          4.74111         9.75911         1.20409
C          6.17979        11.99785         1.97002
C          4.97025        12.88185         1.85697
C          6.08280        14.81938         0.76028
C          4.87128        14.09172         1.27019
C          6.09054        16.22563         1.39040
C          4.76842        16.96404         1.16105
C          6.07928        19.15771         0.85013
C          4.76888        18.45120         1.07546
C          6.13474        20.53810         0.27936
C          4.86622        21.20874        -0.08776
C          6.07385        23.40253        -0.34071
C          4.83635        22.68557        -0.27725
C          6.11488        24.80186        -0.50230
C          4.87925        25.48585        -0.88409
C          6.09512        27.65147        -0.81369
C          4.86439        26.95371        -0.87805
C          6.12800        29.77742        -0.02139
C          4.85219        30.22065         0.48334
C          8.98232         4.39164        -1.90296
C          7.73224         4.98198        -1.71575
C          8.61321         6.38442         0.10828
C          7.51816         5.93688        -0.60370
C          8.56229         7.59097         0.99703
C          7.26266         8.37280         1.02521
C          8.54475        10.48883         1.59749
C          7.22050         9.82608         1.33911
C          8.56781        11.92443         1.15521
C          7.36236        12.73056         1.37639
C          8.61301        14.79565         0.87714
C          7.36391        14.05889         1.03096
C          8.60780        16.22242         0.94636
C          7.34856        16.97785         1.00783
C          8.57049        19.11283         0.90206
C          7.32151        18.33833         0.87028
C          8.56162        20.42720         0.23097
C          7.33450        21.17196         0.02729
C          8.56056        23.50733        -0.41670
C          7.35594        22.71157         0.06965
C          8.55952        24.91640        -0.23226
C          7.30053        25.59850        -0.30630
C          8.52263        27.79070        -0.17114
C          7.30540        27.03133        -0.40535
C          8.55413        29.20486         0.12864
C          7.36838        29.96978         0.52230
C         11.27190         3.92325        -1.09865
C         10.06054         4.59710        -1.00586
C         11.10366         6.15036         0.72040
C          9.86443         5.60310         0.05258
C         11.03544         7.51103         1.30632
C          9.86661         8.25439         1.35432
C         11.11834        10.51368         1.39370
C          9.84965         9.73245         1.66186
C         11.12278        11.88245         0.83307
C          9.83480        12.63555         0.78422
C         11.08471        14.81071         0.91944
C          9.85600        14.11273         0.86255
C         11.09841        16.21772         0.89364
C          9.85020        16.89627         0.92149
C         11.12930        19.03218         0.57897
C          9.87892        18.35979         0.97052
C         11.05167        20.32702         0.07924
C          9.77337        20.80950        -0.30410
C         11.02969        23.53243        -0.46102
C          9.78981        22.94899        -0.75649
C         11.02340        24.92066        -0.20802
C          9.78681        25.63897        -0.21917
C         10.99357        27.76643         0.04897
C          9.76798        27.08047        -0.11662
C         11.03205        29.19080         0.07871
C          9.78778        29.86406         0.21297
C         13.67229         3.70160        -0.55430
C         12.44868         4.36812        -0.40851
C         13.61087         6.26577         0.64422
C         12.41854         5.61194         0.31301
C         13.56074         7.57525         1.27727
C         12.32177         7.98475         1.75955
C         13.63455        10.59423         1.53725
C         12.32377        10.06769         1.87324
C         13.65982        11.95311         1.25599
C         12.40243        12.65122         0.93128
C         13.65420        14.82160         0.92473
C         12.36701        14.11070         1.29279
C         13.61688        16.25247         0.81028
C         12.37683        16.94173         0.83265
C         13.58176        19.11097         0.41755
C         12.37106        18.34953         0.64182
C         13.52756        20.48821         0.18413
C         12.24218        21.20921         0.11080
C         13.54548        23.43354        -0.17579
C         12.23402        22.71807        -0.08879
C         13.49892        24.89890        -0.12474
C         12.28103        25.58492        -0.01905
C         13.57681        27.80037         0.03732
C         12.25021        27.02573         0.22035
C         13.49756        29.24235        -0.26301
C         12.26211        29.89810        -0.07890
C         16.08248         3.53321        -0.06069
C         14.87282         4.25703        -0.04416
C         16.06829         6.19274         0.93926
C         14.86901         5.59375         0.48976
C         16.02899         7.59064         1.43492
C         14.77568         8.36345         1.41871
C         16.08802        10.48611         1.19516
C         14.83654         9.77830         1.50438
C         16.06024        11.91572         0.95543
C         14.88202        12.66567         1.05492
C         16.16103        14.85909         0.95512
C         14.84745        14.10882         0.88958
C         16.07527        16.28377         0.45861
C         14.84808        16.98299         0.57497
C         16.05723        19.07980         0.13258
C         14.84233        18.39617         0.40165
C         16.07060        20.55878         0.22933
C         14.75357        21.29450         0.23761
C         16.04155        23.49569         0.06200
C         14.72624        22.74268        -0.07664
C         15.92163        24.84326        -0.60851
C         14.71739        25.63344        -0.28185
C         15.93542        27.73018        -0.78945
C         14.74969        27.02509        -0.37618
C         15.89963        29.17198        -0.88205
C         14.67793        29.88382        -0.67484
C         18.51044         3.39225         0.27897
C         17.28224         4.12707         0.35168
C         18.57101         6.13139         1.00315
C         17.30086         5.49584         0.79924
C         18.64622         7.57686         1.28634
C         17.36460         8.36165         1.42018
C         18.50592        10.37272         0.42068
C         17.29685         9.77499         1.05043
C         18.49998        11.83826         0.09289
C         17.23012        12.61711         0.37449
C         18.45201        14.70011        -0.09530
C         17.31836        14.08042         0.38615
C         18.41329        16.15315        -0.41918
C         17.22309        16.94875        -0.01269
C         18.39460        19.05924        -0.84943
C         17.22759        18.35442        -0.17247
C         18.55170        20.51823        -0.44833
C         17.33760        21.30447        -0.06896
C         18.45507        23.41680        -0.78492
C         17.28620        22.74229        -0.36907
C         18.45362        24.84905        -0.98412
C         17.16295        25.56281        -1.02442
C         18.34684        27.73251        -1.28805
C         17.13489        27.03597        -1.04518
C         18.30951        29.16344        -1.39014
C         17.08724        29.85091        -1.21077
C         19.70941         4.01874         0.48142
C         21.01670         6.11368         0.57898
C         19.75946         5.42167         0.76231
C         21.09314         7.46728         0.55340
C         19.95379         8.28516         1.00287
C         21.05228        10.55384         0.47929
C         19.84842         9.69626         0.49647
C         20.99622        11.88683         0.23439
C         19.75768        12.59604        -0.00021
C         20.91552        14.73519        -0.48501
C         19.69972        13.97254        -0.25554
C         20.93838        16.07272        -0.68403
C         19.69729        16.86339        -0.77480
C         20.87060        19.06893        -0.99115
C         19.72962        18.34594        -0.76073
C         20.87099        20.49043        -1.18133
C         19.73622        21.25237        -0.96447
C         20.85178        23.44689        -1.31294
C         19.68973        22.69603        -1.01809
C         20.83766        24.82809        -1.39926
C         19.62631        25.56277        -1.26693
C         20.73876        27.76456        -1.71452
C         19.58699        27.02449        -1.43722
C         20.69791        29.16906        -1.83980
C         19.51576        29.86369        -1.67740
O          9.28437        18.98394         2.17645
O          4.17979        24.96284        -2.06549
O          7.65731         7.50465         2.15477
O         19.55839         7.99854         2.37387
O         15.50743        21.03735         1.50532
O         16.25665        24.89750        -2.02449
O          5.12555         4.54499        -1.12320
O          3.78995         9.66125         2.30789
O         17.54777        12.10376        -0.98182
O          5.43372        19.14752         2.19547
O          3.14358        14.53499        -0.41609
O         10.27629         5.14406         1.39180
O          4.22443        20.50206        -1.22334
O         12.30987         8.97315         2.74418
O          9.78933        21.70391        -1.37024
O          3.33954         6.44978         1.01552
O          6.08841        28.98233        -1.19637
O         13.06140        27.45875         1.35863
O          0.63892        15.27666         2.11212
O         16.74512         7.93561         2.66993
O         12.07751        22.16653         1.27685
O          8.97554        12.06814        -0.26414
O         11.91389        12.19572        -0.37510
O         18.76717        16.38745        -1.84048
O          3.64007        28.98237        -1.19994
O          9.14815        10.17460         2.88607
O          3.82789        12.33854         2.47008
O         18.34804        20.86490         0.95073
O         19.05912         9.64951        -0.75162
O          0.78272         6.46856         0.18653
O         16.22814        23.74781         1.48422
H         16.12735        22.87552         1.93961
O          2.43776         4.28730        -0.75669
H          2.22629         4.38973         0.19657
O          6.46404        11.83860         3.37956
H          5.66480        11.45523         3.80108
O          2.22292        17.27400         2.86648
H          1.78621        16.48559         3.26217
O          7.42029        22.90618         1.53639
H          7.57053        23.86019         1.71098
O         12.35308        14.09186         2.76482
H         12.26311        15.01672         3.07936
O         18.04811        19.07414        -2.26910
H         18.12780        18.13846        -2.57858
O          6.17558        16.03310         2.82516
H          6.15212        16.91956         3.24751
O          5.99539        14.97241        -0.67654
H          5.05996        14.83468        -0.94917
O         16.46636        14.96825         2.39743
H         15.70627        15.41432         2.82870
H          2.25738         5.32767        -4.79408
H         -0.14360         5.45038        -4.20258
H         -0.83837         6.02225        -1.87186
H         -0.92297         8.06189        -1.28286
H         -0.86911        10.48374        -1.07473
H         -0.76230        12.42635        -1.03905
H         -0.95343        14.71717        -0.30359
H         -1.16276        16.54655         0.64599
H         -1.08816        18.94494         0.26941
H         -1.08294        20.87218         0.54111
H         -1.03139        23.27853         0.23048
H         -0.96720        25.18541         0.35316
H         -0.84256        27.62123         0.41962
H          0.31136        29.47794         0.74417
H          4.43618         5.19606        -4.36651
H          2.18353        30.88442         1.13739
H          7.12363         4.69392        -3.80594
H          4.84274        30.84023         1.39113
H          9.12486         3.71095        -2.75496
H          7.49662        30.71115         1.32531
H         11.37242         3.09622        -1.81724
H          9.79317        30.94998         0.39045
H         13.70631         2.73031        -1.06892
H         12.22279        30.99382        -0.17593
H         16.08787         2.49469        -0.42279
H         14.66914        30.97151        -0.84296
H         18.47356         2.32791         0.00605
H         17.07279        30.94718        -1.30461
H         20.65403         3.46787         0.36663
H         21.89155         5.51020         0.29444
H         22.01400         7.96913         0.22314
H         22.01947        10.08779         0.71629
H         21.93676        12.45414         0.25361
H         21.87394        14.19868        -0.48355
H         21.90386        16.58359        -0.80535
H         21.84027        18.55527        -1.06548
H         21.81966        20.96030        -1.47467
H         21.80601        22.92530        -1.46852
H         21.77965        25.34929        -1.61470
H         21.70781        27.26279        -1.83729
H         21.62781        29.71169        -2.06023
H         19.49469        30.95947        -1.76306
