         349
 CSIRO Nanostructure Databank - Neutral Graphene Oxide Data Set
C          1.24417         3.53114        -1.56122
C          0.09110         4.24907        -1.70407
C          1.22874         6.40112        -1.36851
C          0.08856         5.68185        -1.64563
C          1.24693         7.84604        -1.23387
C          0.04852         8.59518        -1.30439
C          1.24187        10.66730        -0.80624
C          0.04378         9.95710        -1.08776
C          1.22006        12.07491        -0.55700
C          0.02709        12.82298        -0.51201
C          1.21057        14.87622         0.13813
C          0.01410        14.18292        -0.23624
C          1.18607        16.32539         0.43692
C         -0.03403        17.04302         0.57220
C          1.13847        19.18621         0.52992
C         -0.06012        18.42504         0.58730
C          1.16165        20.62541         0.42448
C         -0.04916        21.39994         0.43984
C          1.17544        23.50376         0.12609
C         -0.03921        22.76287         0.33368
C          1.17046        24.91112         0.08097
C          0.05877        25.71486         0.55259
C          1.09801        27.82311        -0.30621
C          0.03135        27.06820         0.45158
C          1.22944        29.28157         0.04307
C          3.67981         3.49661        -1.39491
C          2.51258         4.19798        -1.36794
C          3.74119         6.44235        -1.25775
C          2.48319         5.66012        -0.96524
C          3.73375         7.80819        -1.05576
C          2.47044         8.53919        -0.98195
C          3.71476        10.61934        -0.40086
C          2.47641         9.93679        -0.77624
C          3.70431        11.96442        -0.08636
C          2.52629        12.82405        -0.50111
C          3.64121        14.89546         0.64872
C          2.40698        14.17736         0.15811
C          3.67169        16.33631         0.09994
C          2.38367        17.04785         0.46314
C          3.60651        19.18304         0.63802
C          2.37039        18.46674         0.55652
C          3.61360        20.55965         0.43693
C          2.39469        21.30249         0.27598
C          3.62741        23.42754        -0.07974
C          2.41931        22.74785         0.05400
C          3.70210        24.85074        -0.40663
C          2.36469        25.65089        -0.34568
C          3.68223        27.80475        -0.60032
C          2.40650        27.09598        -0.22729
C          3.69897        29.25890        -0.14971
C          2.41237        29.92759         0.03525
C          6.21444         3.51220        -1.04081
C          4.99128         4.17935        -1.46540
C          6.28079         6.38652        -1.23119
C          5.00147         5.70702        -1.49249
C          6.25802         7.87226        -1.22418
C          4.97299         8.55247        -0.89850
C          6.23170        10.51086        -0.03506
C          4.95934         9.85371        -0.44212
C          6.20775        11.93999         0.46841
C          4.85919        12.64074         0.63474
C          6.19889        14.88211         0.28534
C          4.90918        14.12291         0.30245
C          6.11542        16.34023         0.60937
C          4.93862        17.02087         0.58202
C          6.09299        19.20332         1.27891
C          4.79198        18.40089         1.19111
C          6.12927        20.66906         0.96036
C          4.90805        21.26865         0.33430
C          6.13185        23.49586         0.52039
C          4.91702        22.72601         0.04304
C          6.15136        24.94337         0.08140
C          4.97205        25.58269        -0.23296
C          6.19810        27.81682        -0.27543
C          4.88809        27.07792         0.03992
C          6.18513        29.22770         0.33822
C          4.85606        29.91592         0.13218
C          8.62080         3.49672        -0.57473
C          7.41432         4.19982        -0.91016
C          8.74623         6.33435        -0.96563
C          7.43284         5.65692        -1.05735
C          8.83220         7.84690        -0.99486
C          7.55511         8.62478        -1.09190
C          8.70435        10.61962        -0.12761
C          7.53953         9.96573        -0.45514
C          8.69143        11.99705         0.33141
C          7.46637        12.70727         0.42273
C          8.65968        14.81420         0.74432
C          7.47614        14.14338         0.50149
C          8.69834        16.29424         0.81773
C          7.40470        17.04196         0.84416
C          8.70336        19.19134         1.24083
C          7.39849        18.45139         1.35082
C          8.66183        20.58632         0.69961
C          7.41117        21.31522         0.62012
C          8.73449        23.50003         0.33875
C          7.39843        22.70381         0.21883
C          8.60676        24.94835         0.65166
C          7.38203        25.68188         0.28035
C          8.65437        27.80911         0.21777
C          7.43250        27.07028         0.19042
C          8.63972        29.24729        -0.03021
C          7.44551        29.94965        -0.06750
C         10.99417         3.48014         0.14234
C          9.80223         4.14793        -0.20204
C         11.07341         6.34022         0.18139
C          9.81186         5.62750        -0.18213
C         11.27994         7.72878        -0.43385
C          9.99209         8.49398        -0.38916
C         11.20688        10.57444         0.33732
C         10.04816         9.99227        -0.44124
C         11.16638        11.94608         0.67244
C          9.92209        12.64731         0.61709
C         11.21398        14.79543         1.19325
C          9.89703        14.05610         1.01523
C         11.17663        16.24902         0.76966
C          9.96081        16.96643         1.36681
C         11.17918        19.12513         1.03928
C          9.98922        18.45236         1.05867
C         11.15282        20.61585         1.36914
C         10.00064        21.34379         0.67472
C         11.15737        23.54909         0.88765
C          9.97392        22.80953         0.69981
C         11.17433        24.94892         0.64936
C          9.93086        25.72770         0.71865
C         11.10215        27.77888        -0.09750
C          9.90094        27.14379         0.31324
C         11.11364        29.23116        -0.23442
C          9.90964        29.91195        -0.16424
C         13.36071         3.31601         0.95788
C         12.19127         4.16107         0.50233
C         13.40144         6.30759         1.18785
C         12.25728         5.54556         0.56286
C         13.68914         7.61500         0.35250
C         12.44879         8.43559         0.18336
C         13.56731        10.43433         1.07865
C         12.39568         9.78889         0.51449
C         13.39939        11.74476         1.55897
C         12.35820        12.61078         1.17631
C         13.69685        14.80078         1.08635
C         12.50632        14.06067         1.15330
C         13.68905        16.26090         0.92604
C         12.47985        16.98300         0.96436
C         13.65540        19.10635         0.70365
C         12.45834        18.40537         0.93403
C         13.58609        20.56962         0.47103
C         12.47295        21.34322         1.10914
C         13.65178        23.51145         0.37510
C         12.46061        22.82861         0.93823
C         13.60180        24.90159         0.10597
C         12.35338        25.60881         0.22349
C         13.41140        27.44087        -0.93271
C         12.27142        26.95010        -0.25187
C         13.43919        29.63141        -0.99252
C         12.36307        30.02729        -0.26844
C         15.82236         3.37663         0.65915
C         14.68736         4.04769         0.93682
C         16.02524         6.20662         1.26580
C         14.70608         5.49302         1.31017
C         16.07266         7.67573         1.01934
C         14.88320         8.37946         0.88665
C         16.09909        10.52599         0.98121
C         14.86026         9.80414         1.03938
C         16.14079        11.99116         0.91105
C         15.25027        12.79821         1.54569
C         16.20130        14.88349         0.62179
C         15.09703        14.28013         1.44790
C         16.14520        16.29833         0.43343
C         14.91023        16.99018         0.66689
C         16.05595        19.11288         0.02494
C         14.87936        18.41006         0.46862
C         16.06720        20.56205        -0.13223
C         14.80311        21.31708         0.03785
C         16.01367        23.49425        -0.23837
C         14.83810        22.80219         0.13045
C         16.05739        24.91867        -0.29416
C         14.79427        25.60086        -0.24665
C         15.90189        27.80193        -0.74421
C         14.69667        26.93460        -0.72744
C         15.86308        29.20100        -1.30369
C         14.82308        30.07451        -1.19755
C         18.23339         3.37107        -0.07800
C         17.21803         3.89496         0.91449
C         18.51111         6.17049         0.62785
C         17.29447         5.42078         1.08084
C         18.49354         7.64860         0.52505
C         17.31650         8.36866         0.83125
C         18.53793        10.47028         0.42347
C         17.30294         9.80108         0.72828
C         18.55875        11.95104         0.40300
C         17.24103        12.63406         0.10014
C         18.49716        14.81644        -0.21196
C         17.30791        14.14284         0.23702
C         18.48070        16.23868        -0.34762
C         17.28847        16.97591        -0.06040
C         18.44312        19.07305        -0.66581
C         17.25140        18.39843        -0.25617
C         18.41876        20.53982        -1.02416
C         17.19524        21.24968        -0.50496
C         18.52734        23.47690        -0.60813
C         17.18422        22.72350        -0.64516
C         18.50938        24.91419        -0.22981
C         17.29414        25.64838        -0.34474
C         18.46446        27.98934        -0.65134
C         17.23342        27.15361        -0.39884
C         18.39419        29.18798        -1.39549
C         17.10980        29.64869        -2.03942
C         19.35262         4.05461        -0.43229
C         20.68226         6.15102        -0.52454
C         19.56355         5.43909        -0.10103
C         20.77729         7.53950        -0.34470
C         19.68451         8.31278         0.12183
C         20.90659        10.48496        -0.25106
C         19.70908         9.76216         0.13527
C         20.96330        11.83584        -0.35637
C         19.81436        12.67874         0.00322
C         20.83434        14.79218        -0.89301
C         19.70951        14.10002        -0.43349
C         20.81131        16.17680        -1.06420
C         19.66493        16.92622        -0.75217
C         20.86707        19.11833        -0.96171
C         19.64841        18.37558        -0.83039
C         20.89902        20.48909        -0.77663
C         19.71213        21.25296        -0.68211
C         20.86865        23.25989         0.16544
C         19.73702        22.64446        -0.39844
C         20.84040        24.60002         0.55295
C         19.71020        25.40418         0.35178
C         20.79279        28.57655        -0.08674
C         19.67360        27.74138         0.02475
C         20.72331        29.70456        -0.90092
C         19.52385        30.00680        -1.54467
O          5.06841         4.93086        -2.74394
O         10.45515        14.39497         2.36224
O          6.90464         8.52614        -2.39531
O         15.39190         5.82655         2.55996
O          9.14680         7.00627        -2.19276
O         16.43341        27.79987         0.65284
O         14.36110        12.22393         2.46873
O          5.52077        14.45444        -0.97149
O          8.22361        16.95633        -0.40239
O          2.97090        25.18601        -1.64375
O          8.13189        18.83445         2.55642
O          9.50769        20.69237        -0.51848
O         19.38588        12.55453         1.42713
O          6.27009        10.81436         1.42173
O         12.84576        22.18294         2.24596
O          5.96382        20.20571         2.34560
O          9.15061        25.37625         1.92785
O         13.21225        28.49728        -1.81449
O         19.80397        26.67264         0.91460
O          9.97441         6.25711         1.14788
O         13.76681        20.89790        -0.95257
O          8.14864        23.13046        -0.94627
O         18.31971         5.75683         2.06854
O         17.83106        23.21309        -1.87425
O          5.18990        21.76552        -1.02724
O         13.11095         2.87534         2.30531
H         13.08174         3.66629         2.88315
O          2.42853         5.61886         0.51527
H          1.59125         5.16853         0.75853
O         10.34968        10.30576        -1.86639
H          9.56689        10.03515        -2.39600
O         15.31038        14.79334         2.80451
H         14.76635        14.23611         3.40398
O         17.00326        12.36733        -1.31584
H         16.16343        12.79959        -1.57686
O          0.68901        27.79364        -1.72619
H          0.68369        26.85404        -2.00972
O          4.52778        12.55539         2.05436
H          4.89007        11.69014         2.36740
O         18.30488        20.58156        -2.49368
H         18.17746        21.53307        -2.73003
O          4.42191        18.11859         2.57343
H          4.63863        18.92530         3.09509
O          4.61503        27.09136         1.46860
H          5.27280        27.67673         1.92057
O         17.60545         3.29102         2.18189
H         18.17260         3.95655         2.63975
O          3.55892        15.03563         2.08309
H          3.67174        14.14120         2.48274
O          6.37389        27.93555        -1.70024
H          5.48516        28.06314        -2.12225
O         10.98734        16.19384        -0.67359
H         10.77014        17.09447        -0.99798
O          3.68109        16.32309        -1.34497
H          4.43138        15.74391        -1.63214
O         11.64444         7.48191        -1.84855
H         11.41999         8.30355        -2.34210
O         10.00924        16.86565         2.79720
H          9.38723        17.53791         3.16741
O          6.31766        29.06961         1.80386
H          6.26082        29.96157         2.20719
O         17.12107        31.06168        -2.23278
H         17.31075        31.48825        -1.37209
O          3.76747        27.78592        -2.05721
H          3.52800        26.86516        -2.33561
O          6.00564        23.54025         1.97166
H          6.62723        24.21155         2.32652
O         10.86808        20.68008         2.78540
H         11.50229        21.32684         3.18053
O         12.98747         6.70805         2.50317
H         13.80042         6.71579         3.06416
O         14.13692         7.12832        -0.95111
H         13.35659         7.16164        -1.56623
O          2.84060        13.15992        -1.92602
H          2.21809        13.86719        -2.20333
H          1.23967         2.43751        -1.67894
H         -0.85808         3.73271        -1.90368
H         -0.86258         6.19368        -1.84765
H         -0.90454         8.09148        -1.51318
H         -0.91335        10.49161        -1.14044
H         -0.93771        12.32733        -0.68785
H         -0.94497        14.71675        -0.25683
H         -0.98800        16.49913         0.61443
H         -1.03411        18.93203         0.62220
H         -1.01332        20.88772         0.56055
H         -0.99452        23.30491         0.35991
H         -0.77857        25.20353         1.05035
H         -0.83644        27.62507         0.83626
H          0.30211        29.84304         0.23483
H          3.65885         2.40583        -1.55040
H          2.44267        31.00392         0.27053
H          6.16263         2.45063        -0.75627
H          4.79427        30.97285         0.44728
H          8.60149         2.39704        -0.60057
H          7.44475        31.03965        -0.22168
H         10.99318         2.38047         0.18310
H          9.91206        31.01055        -0.22953
H         13.43011         2.39376         0.32719
H         12.38958        30.95547         0.32111
H         15.75318         2.30779         0.39823
H         14.99962        31.10984        -1.54202
H         18.12964         2.31726        -0.37784
H         17.04468        29.18885        -3.06829
H         20.11700         3.56180        -1.05331
H         21.50207         5.61812        -1.02823
H         21.70059         8.03470        -0.67134
H         21.80398         9.90987        -0.51595
H         21.88092        12.30567        -0.73819
H         21.77182        14.25416        -1.08864
H         21.72247        16.67535        -1.42004
H         21.81970        18.58431        -1.07480
H         21.87628        20.99002        -0.72429
H         21.77405        22.67113         0.36216
H         21.70947        25.04082         1.05792
H         21.70558        28.33367         0.47178
H         21.59514        30.36247        -1.01564
H         19.44111        30.91304        -2.16013
