         344
 CSIRO Nanostructure Databank - Neutral Graphene Oxide Data Set
C          1.30603         1.99306         0.04251
C          1.25246         3.41543         0.07159
C          2.50142         1.32047         0.17092
C          2.37896         4.18141         0.31975
C          1.15912         6.35383         0.20903
C          1.15265         7.72925         0.21167
C          2.37476         5.62303         0.27826
C          2.36565         8.48023         0.26232
C          1.14622        10.65196         0.41264
C          1.14774        12.03370         0.41881
C          2.34369         9.90095         0.33431
C          2.35197        12.78195         0.14260
C          1.10787        14.96644         0.17494
C          1.08319        16.32722         0.18228
C          2.32146        14.22078        -0.00320
C          2.29996        17.14610        -0.13571
C          2.40069        18.42075         0.66651
C          3.71837         2.03174         0.40662
C          3.63566         3.49085         0.80264
C          4.94115         1.39284         0.39050
C          4.89542         4.25472         0.47747
C          3.60732         6.34926         0.27107
C          3.60865         7.76347         0.24155
C          4.86033         5.61293         0.26578
C          4.86826         8.50258         0.17079
C          3.62350        10.66589         0.54614
C          3.55178        12.07635         0.02532
C          4.87024         9.91264         0.17090
C          4.76047        12.73669        -0.57075
C          3.55964        14.95033        -0.11810
C          3.57365        16.34346        -0.03810
C          4.80670        14.21612        -0.26914
C          4.87425        17.06644         0.17747
C          3.54688        19.10774         0.70914
C          4.77936        18.63577        -0.03267
C          6.17601         2.10178         0.55135
C          6.15813         3.55390         0.57082
C          7.39451         1.42351         0.50555
C          7.35696         4.26853         0.67024
C          6.13102         6.31627        -0.14329
C          6.10187         7.80777         0.07151
C          7.38019         5.67069         0.41543
C          7.32029         8.51339         0.03294
C          6.07854        10.63034        -0.02064
C          6.07154        12.04426        -0.26033
C          7.32295         9.93418        -0.05223
C          7.26343        12.72548        -0.45935
C          5.99223        14.89445        -0.47611
C          6.02307        16.32376        -0.49347
C          7.21169        14.14678        -0.97594
C          7.20800        16.93650        -0.88918
C          6.02857        19.28718         0.52580
C          7.25921        19.05308        -0.08231
C          8.63189         2.10366         0.66652
C          8.56640         3.51533         1.20488
C          9.84335         1.46083         0.50537
C          9.87731         4.29544         1.08713
C          8.55950         6.41392         0.44322
C          8.58251         7.81117         0.10039
C          9.83706         5.76989         0.80061
C          9.79542         8.50355        -0.08159
C          8.55341        10.64501        -0.20896
C          8.52725        12.05240        -0.38343
C          9.79993         9.93020        -0.28181
C          9.75444        12.77612        -0.58444
C          8.50840        14.89789        -0.76300
C          8.48532        16.30158        -0.79560
C          9.72837        14.18547        -0.72197
C          9.68826        17.05899        -0.23728
C          8.57657        19.27111         0.30110
C          9.70473        18.61743        -0.47585
C         11.10340         2.14309         0.55973
C         11.14440         3.57595         0.76406
C         12.29176         1.44823         0.33908
C         12.32562         4.27255         0.58589
C         11.08449         6.46296         0.42911
C         11.05797         7.77662         0.01102
C         12.37505         5.76913         0.80463
C         12.30366         8.48834        -0.22663
C         11.00187        10.64468        -0.53580
C         10.99497        12.05322        -0.67674
C         12.23642         9.84059        -0.89653
C         12.22325        12.79511        -0.88923
C         10.96936        14.95455        -1.10889
C         10.99762        16.37236        -0.58011
C         12.25415        14.18854        -0.90282
C         12.18778        17.03370        -0.42152
C         11.02912        19.18833        -0.04474
C         12.19292        18.46546        -0.08515
C         13.53197         2.12413         0.19991
C         13.54599         3.57642         0.24780
C         14.73452         1.41263         0.06656
C         14.72161         4.27754        -0.02579
C         13.58199         6.43633         0.21186
C         13.51306         7.84710        -0.05641
C         14.74797         5.71477        -0.03567
C         14.79764         8.62028        -0.01831
C         13.54219        10.60807        -0.86266
C         13.47520        12.05723        -1.17591
C         14.73145         9.96481        -0.70015
C         14.77278        12.84986        -1.22329
C         13.49069        14.93400        -0.81630
C         13.46476        16.33948        -0.55464
C         14.74772        14.27058        -0.84361
C         14.67411        17.03742        -0.34378
C         13.44797        19.12713         0.10223
C         14.65233        18.45652        -0.05154
C         15.96351         2.07722        -0.17073
C         15.90350         3.52814        -0.59344
C         17.17471         1.40381        -0.18728
C         17.21666         4.25502        -0.44049
C         15.99565         6.41630        -0.33198
C         16.02396         7.81106        -0.36008
C         17.22123         5.67446        -0.45076
C         17.26451         8.51629        -0.43275
C         16.03516        10.62103        -0.92522
C         16.07451        12.11930        -1.13007
C         17.28103         9.94347        -0.51993
C         17.28482        12.83743        -0.69093
C         15.96109        14.94659        -0.57601
C         15.93377        16.35808        -0.36132
C         17.22905        14.23982        -0.50026
C         17.15003        17.07919        -0.15566
C         15.89208        19.15576         0.08026
C         17.10203        18.50197         0.01600
C         18.42506         2.08846        -0.37152
C         18.42083         3.53633        -0.46475
C         19.63278         1.40393        -0.38306
C         19.67697         4.22614        -0.57106
C         18.46978         6.37419        -0.48043
C         18.48575         7.80522        -0.42325
C         19.68530         5.65851        -0.56341
C         19.72440         8.51993        -0.34537
C         18.48358        10.66346        -0.46766
C         18.48535        12.11615        -0.49229
C         19.72530         9.95451        -0.32478
C         19.70129        12.83383        -0.27609
C         18.43590        14.94502        -0.22518
C         18.40127        16.38867        -0.05161
C         19.66736        14.24070        -0.19749
C         19.58533        17.09973         0.23743
C         18.35902        19.32904         0.12511
C         19.62985        18.51980         0.20027
C         20.89160         2.07926        -0.54769
C         20.88567         3.50675        -0.67170
C         22.08837         1.35211        -0.50657
C         22.12922         4.27676        -1.06935
C         20.94292         6.35975        -0.43710
C         20.93711         7.79791        -0.26948
C         22.13743         5.65416        -0.46453
C         22.17763         8.50199        -0.18147
C         20.95124        10.66245        -0.22315
C         20.95804        12.10716        -0.14938
C         22.17824         9.93305        -0.17230
C         22.15926        12.79264         0.06947
C         20.95185        15.04489        -0.21317
C         20.81135        16.31175         0.65651
C         22.19648        14.24444         0.14218
C         22.10489        17.13583         0.62131
C         20.83492        19.21160         0.13699
C         22.09520        18.55048         0.19973
C         23.40148         1.97529        -0.67417
C         23.44019         3.50596        -0.90933
C         24.62882         1.34508        -0.22038
C         24.67669         4.21415        -0.53113
C         23.37338         6.28899         0.09595
C         23.39924         7.78351        -0.10951
C         24.65921         5.59228        -0.26554
C         24.62671         8.47024        -0.05709
C         23.42394        10.61843        -0.05563
C         23.42066        12.07343         0.10497
C         24.62176         9.89492         0.00367
C         24.61299        12.75109         0.22217
C         23.36703        14.91111         0.38765
C         23.40685        16.39400         0.49670
C         24.67314        14.19107         0.63006
C         24.58863        17.12912         0.01152
C         23.29384        19.19249        -0.09194
C         24.53786        18.49504        -0.20271
C         25.85640         2.02242        -0.29069
C         25.89577         3.46278        -0.43345
C         27.08796         1.31605        -0.13813
C         27.12861         4.14368        -0.25419
C         25.87298         6.33530        -0.21222
C         25.87039         7.72331        -0.10454
C         27.17425         5.63000        -0.53474
C         27.15485         8.45927        -0.23927
C         25.89243        10.63013         0.35915
C         25.88660        12.04784        -0.18629
C         27.16571         9.93970        -0.07505
C         27.16709        12.77789         0.14544
C         25.84947        14.87793        -0.05187
C         25.80533        16.34401        -0.29448
C         27.16478        14.17925         0.06674
C         27.11279        17.09662        -0.50034
C         25.78559        19.27019        -0.63123
C         27.01732        18.56769        -0.01548
C         28.30120         1.99342        -0.03193
C         28.29942         3.42512        -0.00872
C         29.57420         1.30166         0.01637
C         29.54962         4.10680         0.38327
C         28.37649         6.35868         0.03101
C         28.41782         7.72823         0.00767
C         29.58131         5.62480         0.43927
C         29.63820         8.46115         0.30062
C         28.42216        10.63026         0.31960
C         28.38476        12.07856         0.37566
C         29.59285         9.89876         0.48469
C         29.58103        12.82523         0.55418
C         28.37033        14.89816         0.07572
C         28.34886        16.40560         0.14668
C         29.60084        14.23221         0.32833
C         29.64372        17.04273        -0.39771
C         28.36271        19.23373        -0.21837
C         29.55238        18.55778        -0.23874
C         30.76701         1.96947         0.07729
C         30.82481         3.39672         0.25112
C         32.00770         4.12056         0.34925
C         30.88163         6.31764         0.38604
C         30.86199         7.76458         0.39173
C         32.03505         5.53610         0.42359
C         32.08426         8.51688         0.57447
C         30.81194        10.58009         0.96816
C         30.79805        12.14354         1.01241
C         32.07602         9.84198         0.86932
C         32.04248        12.91788         1.00857
C         30.83686        14.98535         0.45072
C         30.85991        16.40347         0.25640
C         32.03594        14.25906         0.75655
C         31.98446        17.19881         0.44778
C         30.80651        19.26609        -0.13743
C         31.96202        18.60008         0.19450
O          7.15731        18.28009        -1.28624
O          9.95538         5.24649         2.21827
O         27.16738         9.36633        -1.41707
O         25.55781        15.35736        -1.40946
O         22.92276        16.89937         1.81616
O         30.62021        11.31704         2.21736
O         23.62351         2.60250        -2.02032
O         16.24756        11.21824        -2.26039
O         14.05104        12.51491        -2.45181
O         29.39177         4.82412         1.66749
O         29.83941        16.74493        -1.79831
H         29.07958        17.13570        -2.29147
O          3.53507         3.49423         2.27240
H          2.73740         2.97452         2.50768
O          7.02671        14.04230        -2.43708
H          7.87756        13.73327        -2.81793
O         27.30056        17.14592        -1.94016
H         26.87104        16.32753        -2.29613
O         28.33241        16.66980         1.58227
H         29.09359        16.19525         1.98063
O         24.98049        14.24762         2.05614
H         24.31940        13.70288         2.53216
O          5.15609        16.97237         1.61755
H          5.15400        16.02207         1.86172
O         23.28283         6.11175         1.57909
H         22.48146         6.59457         1.87659
O         21.98233         4.50052        -2.51667
H         22.34364         3.69693        -2.95968
O          9.62270        18.89340        -1.88773
H          8.68482        18.76297        -2.16227
O         15.65155         3.49050        -2.04845
H         16.39664         3.00105        -2.45824
O          8.31085         3.33217         2.62953
H          8.59791         4.16453         3.07166
O         21.13525        15.51972        -1.57789
H         21.19432        14.73931        -2.16809
O         25.92551        10.73453         1.80712
H         25.86218         9.83391         2.18812
O          2.14560        17.53238        -1.54680
H          2.23386        16.71960        -2.08791
O         18.42342        20.25846        -0.97320
H         18.46307        19.74414        -1.80553
O         20.57606        15.89029         2.01682
H         21.40505        16.08604         2.51834
O         25.84122        11.95018        -1.63688
H         25.80274        12.86054        -2.00028
O         26.71569        18.65160         1.39419
H         27.39521        18.13931         1.89227
O          3.73801        10.83354         2.02913
H          2.87229        11.17725         2.34022
O         12.53658         5.97617         2.25969
H         11.67739         5.69406         2.66641
O          6.22949         6.13490        -1.60906
H          5.44670         6.57065        -2.00871
O         14.97143         8.96979         1.41085
H         14.80188         8.15477         1.93224
O         25.84891        19.40332        -2.04845
H         26.25239        18.57935        -2.41110
O         10.85252        15.10715        -2.57965
H         11.66957        15.55196        -2.89262
O          4.59960        12.62841        -2.03042
H          5.37046        13.10421        -2.43295
O          4.59629        18.93238        -1.42126
H          5.45429        18.77651        -1.87718
O          9.55620        16.94015         1.21449
H          9.61369        15.98950         1.44847
O         12.05241         9.52593        -2.32597
H         12.23195        10.34531        -2.83611
O         27.33101         5.72166        -1.99436
H         27.23472         6.66591        -2.24672
H          0.38270         1.43440        -0.16472
H          0.29571         3.89536        -0.17849
H          2.54219         0.23021         0.03006
H          0.19981         5.81910         0.19228
H          0.18702         8.25064         0.18834
H          0.17647        10.13777         0.46524
H          0.18705        12.55506         0.51252
H          0.16479        14.42610         0.33555
H          0.12692        16.85712         0.30660
H          1.50572        18.77928         1.19830
H          4.98099         0.30450         0.22499
H          3.61163        20.04380         1.28599
H          7.40305         0.33918         0.31472
H          5.98664        19.80284         1.49573
H          9.85034         0.39217         0.23984
H          8.79953        19.78652         1.24557
H         12.26525         0.35352         0.23350
H         11.08021        20.27136         0.14694
H         14.73011         0.31920         0.19356
H         13.44968        20.20455         0.32463
H         17.19316         0.31722        -0.01028
H         15.87044        20.24418         0.23665
H         19.63581         0.30864        -0.27856
H         18.29236        19.95955         1.05367
H         22.05321         0.28038        -0.26069
H         20.81100        20.29897        -0.02860
H         24.59841         0.30238         0.12792
H         23.27397        20.26274        -0.34715
H         27.07308         0.21618        -0.12997
H         25.71817        20.30326        -0.20207
H         29.56631         0.20407        -0.05601
H         28.38870        20.33355        -0.13859
H         31.71285         1.40821         0.04719
H         32.96666         3.58265         0.31542
H         33.02176         6.01919         0.45530
H         33.04516         7.98522         0.54223
H         33.01814        10.36005         1.09580
H         32.98076        12.41976         1.28848
H         32.98970        14.80316         0.79713
H         32.91991        16.76291         0.82668
H         30.80716        20.36235        -0.23180
H         32.89464        19.16701         0.32684
