         244
 CSIRO Nanostructure Databank - Neutral Graphene Oxide Data Set
C          1.67841         2.68689        -2.81563
C          1.60826         3.97050        -2.23193
C          2.86199         1.98822        -2.78293
C          2.69788         4.50803        -1.56116
C          1.32896         6.41530        -0.53611
C          1.24522         7.67003        -0.01446
C          2.61631         5.97886        -1.18737
C          2.40776         8.50291         0.14755
C          1.07933        10.63981         0.39718
C          1.02954        11.98720         0.39640
C          2.34614         9.90216         0.40627
C          2.29966        12.76619         0.17509
C          1.13878        15.03336         0.55570
C          1.20334        16.44192         0.61483
C          2.29022        14.25555         0.46891
C          2.40271        17.13261         0.39632
C          2.46330        18.56141         0.68035
C          4.01893         2.47187        -2.08926
C          3.90612         3.75355        -1.39906
C          5.20704         1.72509        -2.32537
C          4.99928         4.40094        -0.72992
C          3.78967         6.52208        -0.41906
C          3.70751         7.85605         0.12479
C          4.97838         5.79448        -0.35947
C          4.81141         8.44983         0.73364
C          3.52122        10.59220         0.71811
C          3.47905        12.04992         0.81741
C          4.74303         9.86860         1.24216
C          4.79936        12.79153         0.81130
C          3.55371        14.91822         0.36881
C          3.57373        16.33103         0.15568
C          4.78946        14.20416         0.38346
C          4.79571        16.90246        -0.24659
C          3.56511        19.37291         0.76944
C          4.86522        18.99098         0.25467
C          6.39237         1.84508        -1.55615
C          6.20274         3.72555        -0.42388
C          7.72747         1.62048        -1.82559
C          7.42658         4.37867        -0.29709
C          6.16075         6.38756         0.19852
C          6.04938         7.64472         1.01683
C          7.38884         5.73809         0.12925
C          7.33652         8.45020         0.99134
C          6.06808        10.60744         0.99772
C          6.06452        12.03243         0.77493
C          7.26529         9.89400         1.07510
C          7.23604        12.72862         0.45957
C          6.01510        14.86842         0.18779
C          6.04011        16.27944        -0.05893
C          7.25569        14.14443         0.18814
C          7.26540        17.03024        -0.00881
C          6.13896        19.23138         0.69807
C          7.30366        18.45469         0.26465
C          8.79184         2.24454        -1.02218
C          8.74924         3.76531        -0.70797
C          9.93695         1.53816        -0.81679
C          9.84762         4.17857         0.31345
C          8.54312         6.26821         0.97508
C          8.53488         7.78027         1.05430
C          9.89748         5.68666         0.58412
C          9.75881         8.50954         1.60446
C          8.54712        10.62032         1.12682
C          8.52479        12.07262         0.71512
C          9.83205         9.90041         1.01829
C          9.75996        12.62588         0.11547
C          8.45438        14.85118        -0.02276
C          8.48462        16.28601        -0.03404
C          9.71661        14.11501        -0.22377
C          9.74478        16.96079        -0.04567
C          8.55069        19.08097         0.32446
C          9.77018        18.38700         0.09462
C         11.28415         2.17153        -0.60540
C         11.17699         3.64627        -0.18948
C         12.33506         1.42310         0.17156
C         12.41291         4.33188         0.24601
C         11.05493         6.35559         0.85300
C         11.09859         7.70004         1.59731
C         12.37308         5.71307         0.78757
C         12.31088         8.52173         1.12943
C         11.02049        10.57923         0.77921
C         11.03918        11.96240         0.38619
C         12.29080         9.85319         0.86531
C         12.24502        12.66732         0.13383
C         10.99741        14.81890        -0.19115
C         10.98045        16.24244        -0.13731
C         12.20642        14.09009        -0.15510
C         12.21452        16.94835        -0.17895
C         11.00267        19.07581         0.07277
C         12.22260        18.39018        -0.09191
C         13.55812         2.06250         0.43350
C         13.62166         3.51393         0.43445
C         14.74130         1.33884         0.76017
C         14.79213         4.16111         0.76053
C         13.54293         6.35259         1.07513
C         13.62757         7.83183         1.40117
C         14.83734         5.59710         1.21534
C         14.82839         8.48645         0.72703
C         13.58802        10.65162         0.91144
C         13.50461        12.01516         0.26194
C         14.80911         9.85996         0.49385
C         14.69585        12.68550        -0.09848
C         13.44005        14.80432        -0.28422
C         13.42853        16.23131        -0.32175
C         14.67107        14.09637        -0.35703
C         14.66231        16.94039        -0.49508
C         13.45727        19.07593        -0.14000
C         14.66975        18.39258        -0.36099
C         15.98719         1.99641         0.88255
C         16.00946         3.42792         0.83184
C         17.22478         1.31919         1.09954
C         17.23521         4.14209         0.72024
C         16.04202         6.32523         0.65730
C         16.01859         7.72338         0.52741
C         17.23286         5.57019         0.49377
C         17.33924         8.44752         0.40906
C         15.99604        10.56964         0.06153
C         15.95055        11.97892        -0.18069
C         17.22528         9.87823        -0.07099
C         17.14921        12.68448        -0.51555
C         15.88405        14.80859        -0.63596
C         15.84169        16.23694        -0.74010
C         17.11924        14.10630        -0.73307
C         17.05513        16.99621        -1.20866
C         15.89614        19.07806        -0.36680
C         17.10958        18.43539        -0.73346
C         18.43877         2.01777         1.04281
C         18.43309         3.40346         0.69730
C         19.69812         1.42557         1.46550
C         19.67931         4.08489         0.36437
C         18.46423         6.21676         0.11334
C         18.38216         7.64451        -0.37682
C         19.65225         5.53145         0.09781
C         19.71389         8.34850        -0.33981
C         18.40055        10.56304        -0.44308
C         18.37293        11.95863        -0.64042
C         19.68984         9.81163        -0.75548
C         19.62699        12.69805        -0.92217
C         18.35198        14.86225        -0.90263
C         18.33549        16.24017        -0.98788
C         19.63609        14.16349        -0.88559
C         19.61362        17.02367        -0.82768
C         18.29189        19.13029        -0.81769
C         19.51248        18.46379        -1.38043
C         20.86152         2.12846         1.49956
C         20.98459         3.43275         0.82682
C         22.08606         4.37936         1.11512
C         20.97659         6.16748        -0.27038
C         20.89964         7.68197        -0.30989
C         22.06941         5.64339         0.65375
C         22.14958         8.42016        -0.48993
C         20.91465        10.54966        -0.18422
C         20.97441        11.97944        -0.68843
C         22.17777         9.76561        -0.47123
C         22.10488        12.82897        -0.33079
C         20.84906        14.84145        -0.93641
C         20.84954        16.29502        -1.38415
C         22.06868        14.16740        -0.60024
C         22.07516        17.11499        -1.07712
C         20.78910        19.19366        -1.08225
C         21.98814        18.50174        -0.97057
O         11.40300         7.32864         2.92733
O          4.00677        12.59040         2.06386
O         20.45230        12.17827        -2.01705
O          9.60759        13.07242        -1.26653
O          8.21789         5.77136         2.27870
O         11.87269         4.46609        -1.18397
O          8.64390        11.70517         2.12263
O         20.56802         3.36129        -0.58102
O          4.76797        18.14742        -0.87692
O          6.15781         2.34747        -0.26217
O         19.34633        18.42562        -2.83860
H         18.44200        18.04896        -3.01491
O         20.79663        16.22379        -2.83554
H         20.48204        17.10905        -3.15951
O         17.94640         7.60787        -1.76680
H         18.53250         6.98117        -2.24327
O          9.05545         4.44139        -1.95631
H         10.02932         4.42436        -2.09262
O          2.66271         6.67711        -2.49176
H          2.59274         7.63881        -2.30866
O         13.87151         8.03675         2.82338
H         13.02569         7.68972         3.25029
O         16.92369        17.09801        -2.69187
H         16.87618        16.18237        -3.04369
O          9.41485         8.75312         2.98572
H         10.05084         8.17271         3.49923
O          4.56614         9.83786         2.69117
H          4.51335        10.77790         2.98323
O         20.75789        10.64203         1.25532
H         20.60535         9.73640         1.60069
O         11.85949         2.11189        -1.96020
H         12.26405         3.00337        -2.12095
O         17.87299         8.52402         1.77119
H         17.16773         8.88829         2.34855
O          9.56296         3.56945         1.58003
H          9.00731         4.23516         2.09547
O          5.91427         7.18272         2.39973
H          6.74844         6.64360         2.58716
O         19.80431        17.18521         0.60701
H         19.84556        16.29102         1.00742
O         15.08251         5.50994         2.66003
H         15.95662         5.08561         2.79051
O         13.80517        10.90462         2.34582
H         13.81242        10.01111         2.78041
O         19.79574         9.76211        -2.19830
H         19.04255         9.21490        -2.51710
O          2.58401        12.68075        -1.26541
H          1.83299        13.08906        -1.74538
O         21.31353         5.75402        -1.62521
H         21.26036         4.76561        -1.62901
H          0.80372         2.27573        -3.33796
H          0.69036         4.56299        -2.34974
H          2.93413         1.01584        -3.29182
H          0.43282         5.78125        -0.59947
H          0.27253         8.04654         0.33564
H          0.14550        10.06158         0.45278
H          0.06007        12.50581         0.42721
H          0.15257        14.55230         0.62975
H          0.28219        17.00833         0.81608
H          1.51307        18.98479         1.04678
H          5.19473         1.02419        -3.17507
H          3.45241        20.35885         1.24685
H          8.02892         1.05598        -2.72188
H          6.31277        20.00113         1.46524
H          9.96026         0.47838        -1.11831
H          8.59726        20.15745         0.54719
H         12.28521         0.32374         0.21072
H         11.00917        20.17071         0.17878
H         14.69757         0.24155         0.82219
H         13.46988        20.17050        -0.03150
H         17.22420         0.23784         1.30054
H         15.91871        20.14763        -0.10929
H         19.66165         0.41601         1.90176
H         18.32008        20.20112        -0.56181
H         21.75276         1.70432         1.98604
H         22.90248         4.03554         1.76944
H         22.90494         6.31530         0.90292
H         23.06879         7.84524        -0.67244
H         23.12671        10.30579        -0.60456
H         22.98756        12.37872         0.14556
H         22.97113        14.77047        -0.42591
H         23.07039        16.64890        -1.11401
H         20.77567        20.29092        -1.00665
H         22.91342        19.07396        -0.80027
