         300
 CSIRO Nanostructure Databank - Neutral Graphene Oxide Data Set
C         34.02357        32.98573        -4.99377
C         33.80025        34.15150        -4.64608
C         32.81820        37.16426        -3.45530
C         32.32020        38.12668        -2.87091
C         31.54351        41.04159        -1.80366
C         31.55242        42.26802        -1.65691
C         34.50757        29.71650        -3.27415
C         34.37612        30.51474        -4.21030
C         34.99196        32.43436        -2.84908
C         34.87322        31.88907        -4.45113
C         34.55609        33.79667        -2.40515
C         33.54451        34.63487        -3.23802
C         33.32588        36.27353        -1.29825
C         33.72316        36.11039        -2.84936
C         33.55192        37.74978        -0.83182
C         32.46418        38.62169        -1.49184
C         32.98077        40.57921         0.15611
C         32.13668        39.97794        -0.99354
C         32.98018        42.12685         0.34334
C         32.65749        43.03904        -1.02756
C         33.45662        44.78972         0.31358
C         32.48902        44.42176        -0.43125
C         35.22796        27.70659        -1.10286
C         34.90518        29.07489        -0.66263
C         34.59260        30.01596        -1.82969
C         35.58518        31.92045        -0.42692
C         34.97081        31.46207        -1.69523
C         35.31868        33.20020        -0.03226
C         34.56342        34.08099        -0.93411
C         35.02377        36.07084         1.39437
C         33.99907        35.22616        -0.47403
C         35.11251        37.42870         1.33059
C         34.28997        38.28101         0.38223
C         35.05635        40.34114         1.79562
C         34.00506        39.70291         0.85080
C         35.37844        41.78669         1.43025
C         34.33087        42.67351         0.84430
C         35.17248        44.62547         2.30588
C         34.38795        44.14859         1.12152
C         35.55026        46.09128         2.27700
C         37.51869        27.34536        -0.43901
C         36.30086        27.11056        -1.19463
C         37.60474        28.59415         0.15360
C         36.38229        29.50456         0.09846
C         37.88402        31.62760         0.52962
C         36.53717        30.98179         0.24368
C         37.82250        32.46092         1.80270
C         35.62531        33.66243         1.36952
C         37.53487        35.70039         1.78479
C         36.11532        35.09931         1.68827
C         37.60310        37.22100         1.91890
C         36.31939        38.04974         1.93213
C         37.74449        40.20919         2.17034
C         36.38594        39.56226         2.00746
C         37.89638        41.66407         1.73720
C         36.59125        42.40659         2.08025
C         37.90022        44.58884         1.96454
C         36.58668        43.87233         2.35362
C         38.00629        46.05411         2.41406
C         36.67126        46.54922         2.53579
C         40.39738        24.14283         1.51741
C         39.47768        24.60496         0.79932
C         40.36011        26.86236         0.78317
C         39.34603        26.00358         0.43097
C         40.16175        28.36032         0.94673
C         38.84540        29.16580         0.82415
C         40.17132        31.21045         1.61177
C         38.99720        30.66291         0.79998
C         40.19834        32.75433         1.71664
C         38.90521        33.50210         1.89817
C         39.97863        35.69617         1.33733
C         38.82410        34.97725         1.53758
C         40.05663        37.18049         1.13912
C         38.80305        38.04150         1.39450
C         40.36000        40.07928         2.03340
C         39.02343        39.32135         2.31093
C         40.50723        41.63043         2.19317
C         39.13898        42.32779         2.33364
C         40.46064        44.48475         1.98589
C         39.15662        43.81467         2.34823
C         40.46895        45.97843         1.98706
C         39.20375        46.69674         2.41561
C         40.19533        48.78613         1.65337
C         39.41895        48.11110         2.34881
C         42.88865        24.40345         2.41275
C         41.81390        24.46030         1.40310
C         42.89689        26.99159         1.27568
C         41.54403        26.34225         1.60242
C         42.83683        28.46679         0.91788
C         41.46802        29.14661         0.82967
C         42.69792        31.41339         1.19078
C         41.43969        30.62744         0.99105
C         42.59411        32.84881         0.79290
C         41.32079        33.53769         1.12846
C         42.62230        35.71061         1.42654
C         41.30077        35.00612         1.43191
C         42.73877        37.18326         1.11844
C         41.39375        37.88655         1.01619
C         42.70768        40.14118         0.84980
C         41.49825        39.34729         1.39173
C         42.28696        41.51260         0.21179
C         41.36324        42.33498         1.11905
C         42.22580        44.49112         0.16448
C         41.37853        43.70698         1.08247
C         42.14682        45.85401         0.06299
C         41.48900        46.75122         1.12820
C         42.10158        48.70484        -0.18187
C         40.90803        48.11272         0.49777
C         43.92440        25.08232         2.48426
C         45.38749        27.22451         2.07441
C         44.17243        26.38701         1.82601
C         45.35904        28.68471         1.67099
C         44.09442        29.28439         1.10807
C         45.33785        31.60725         1.10690
C         44.03593        30.78093         1.28938
C         45.09233        32.89692         0.30873
C         43.86089        33.61437         0.77946
C         45.52356        35.97450         0.21770
C         43.83878        34.88492         1.22030
C         45.08183        37.22591        -0.21377
C         43.92940        37.91401         0.44770
C         44.67518        40.06042        -0.79292
C         43.50042        39.25875        -0.17570
C         44.63970        41.57171        -0.85712
C         43.56431        42.36067        -0.09388
C         44.46062        44.47924        -1.16626
C         43.11428        43.67401        -0.80941
C         44.47283        45.97214        -0.69475
C         43.08819        46.53269        -0.99578
C         42.91035        47.99818        -0.78105
C         47.79729        27.37582         1.64295
C         46.77376        26.74383         1.94069
C         47.92166        28.62027         0.81005
C         46.67408        29.49111         1.45322
C         47.67278        31.42501        -0.04038
C         46.40658        30.67019         0.47669
C         47.54306        32.83108        -0.57408
C         46.23260        33.59771        -0.38961
C         47.31229        35.69428        -1.46490
C         46.26682        35.08014        -0.57021
C         47.27455        37.22428        -1.45459
C         45.90022        37.90455        -1.31700
C         47.04894        40.19532        -1.69374
C         46.05130        39.36681        -0.83829
C         47.25049        41.60621        -1.07012
C         45.89841        42.31256        -1.13685
C         47.09447        44.54584        -1.21990
C         45.80876        43.74254        -1.31753
C         46.81509        45.97662        -1.38418
C         45.69764        46.50976        -1.36731
C         50.52600        29.01270         0.57724
C         49.16949        29.48740         0.86300
C         50.23660        31.68206        -0.19893
C         49.05670        30.92039         0.31359
C         50.12018        33.06641        -0.42036
C         48.80266        33.61602        -1.02304
C         49.91777        35.77243        -1.52057
C         48.65190        35.16720        -0.84863
C         49.72450        37.25267        -1.93412
C         48.41162        37.94159        -1.68868
C         49.60782        40.23142        -2.23334
C         48.36045        39.42095        -1.96765
C         49.57975        41.73544        -2.08649
C         48.43376        42.37363        -1.67473
C         49.63353        44.50421        -1.85384
C         48.39961        43.85732        -1.41181
C         51.54318        29.66166         0.31284
C         52.66441        31.98685         0.03709
C         51.67265        30.93392        -0.43011
C         52.46058        33.19539        -0.24436
C         51.26873        33.92540        -0.46813
C         52.27586        36.13267        -1.38660
C         51.18059        35.41757        -0.63426
C         52.15505        37.27715        -1.83607
C         50.99129        38.06304        -2.24977
C         51.93317        40.44137        -2.33643
C         50.95472        39.52759        -2.17345
C         51.99698        41.73130        -2.44140
C         50.85502        42.49065        -2.36179
C         50.61464        43.89642        -2.30849
O         31.31888        38.83982        -0.64834
O         43.82004        26.25556         0.40905
O         35.93369        33.52641        -2.84592
O         36.56114        42.90805         3.43924
O         41.34731        30.05082        -0.33238
O         45.20883        28.25610         3.07101
O         36.89356        40.02248         3.31670
O         44.95856        44.24224        -2.45825
O         41.61628        33.15992        -0.25554
O         47.03205        35.20249        -2.81997
O         41.11115        45.22623         3.06896
O         34.89626        38.27746        -0.98081
O         39.04487        43.06499         3.58624
O         33.86153        35.43890         0.90811
O         47.46865        31.67281        -1.45334
O         39.29697        28.55878         2.11120
O         35.25451        32.97255         2.30536
O         35.41915        42.10854         0.00687
O         47.90116        44.18453        -0.06078
O         42.44254        43.44605        -1.97066
O         49.19505        30.60885         1.75220
O         50.21410        37.47145        -3.30524
O         43.76154        37.85920         1.88935
O         48.93725        33.37071        -2.38465
O         36.91653        37.54448         3.15509
O         36.05001        30.17278         1.36361
O         48.81070        39.71998        -3.33552
O         39.79370        33.24554         3.02718
O         44.21281        40.72942        -1.98629
O         32.66312        39.88848         1.39135
O         45.16306        32.87087        -1.14035
O         41.41077        39.44803         2.83263
O         45.04027        35.53002         1.45438
O         41.96041        35.38039         2.69494
O         38.35314        26.28588        -0.46293
O         43.69868        28.79222        -0.20069
O         36.81584        35.16024         2.94222
O         43.32331        31.19727         2.50064
O         40.64395        37.52685        -0.17349
O         33.57594        30.98638        -1.46098
O         51.10075        36.01573         0.66657
H         51.86309        35.70561         1.20080
O         41.57581        41.24105        -0.99779
H         41.70517        42.03771        -1.60985
O         41.31911        26.56736         2.96511
H         40.35763        26.61157         3.14943
O         34.44806        44.29089         3.46322
H         35.01628        44.41860         4.25135
O         47.09610        29.94183         2.71725
H         46.73807        29.32756         3.39932
O         40.16768        30.72340         2.96844
H         39.73965        31.40297         3.53900
O         47.60315        41.52039         0.34331
H         47.74785        42.45237         0.65217
O         36.14637        31.87150        -4.99787
H         36.49680        32.78662        -5.02101
O         48.53807        35.51280         0.52696
H         49.42978        35.61862         0.94164
O         39.13828        38.90273         3.66040
H         38.23131        38.76800         4.02638
O         42.73365        46.16738        -2.30585
H         41.78763        46.35685        -2.46387
O         50.19365        35.05969        -2.72057
H         49.51041        35.31796        -3.39482
O         31.95428        42.43428         1.26265
H         31.84584        41.67510         1.87914
O         38.34452        38.52850         0.11800
H         39.10736        38.50123        -0.51147
O         38.09307        41.65613         0.31464
H         37.96792        42.57056        -0.03142
O         47.86179        35.94995        -3.76713
H         47.64690        35.48563        -4.61329
O         38.21043        32.56469        -0.53125
H         38.85611        32.15009        -1.14267
O         37.42095        31.92279         2.93646
H         36.80545        31.16449         2.76069
O         47.72295        28.31291        -0.54184
H         46.88586        27.81901        -0.66471
O         33.90185        29.14488         0.29038
H         33.32768        29.92049         0.09243
O         45.78185        32.06965         2.38581
H         45.04321        31.96921         3.02881
O         43.57535        40.42247         1.95578
H         43.04549        40.26549         2.78179
O         42.53390        47.18143         2.00135
H         42.74635        46.43827         2.60841
O         35.06956        36.43989        -3.04739
H         35.24073        37.36270        -2.75713
O         46.52467        39.19936         0.50445
H         46.75822        40.07576         0.89452
O         41.24289        41.83494         3.40914
H         40.68979        42.39130         4.00998
O         34.40613        40.37746         3.07575
H         35.09346        40.53556         3.76299
O         37.89859        44.59726         0.50756
H         37.25973        45.27548         0.19635
O         44.67742        46.03005         0.70429
H         45.61206        45.82513         0.91428
O         45.25482        37.89177        -2.59934
H         45.29288        36.98098        -2.96224
O         44.18460        42.81089         1.12213
H         44.14268        42.06321         1.77603
O         42.27577        24.12315         0.16172
H         43.18827        24.47604         0.03989
O         46.47028        40.46474        -2.97133
H         46.06108        39.63909        -3.31735
O         45.80074        30.07048        -0.66659
H         45.95548        30.67219        -1.43835
O         31.91145        36.04315        -1.17735
H         31.68184        35.97118        -0.22660
O         33.77064        43.00893        -1.86712
H         33.58110        43.50464        -2.68941
O         51.84799        30.69520        -1.78839
H         51.76771        31.53264        -2.29057
O         39.94585        47.79176        -0.47495
H         39.64343        48.61317        -0.91473
O         42.63937        38.86559        -1.24517
H         42.40247        39.68022        -1.75449
O         32.26659        34.16947        -2.85433
H         31.58230        34.80155        -3.16038
