         234
 CSIRO Nanostructure Databank - Neutral Graphene Oxide Data Set
C          1.46997         2.15492        -1.38425
C          1.42806         3.55691        -1.10995
C          2.62886         1.43547        -1.24839
C          2.51749         4.23691        -0.59742
C          1.27188         6.39580        -0.45062
C          1.17300         7.70420        -0.12186
C          2.50494         5.65202        -0.30895
C          2.34028         8.44563         0.37508
C          1.10519        10.74932         0.09005
C          1.16245        12.09850         0.05581
C          2.29182         9.95275         0.46987
C          2.36813        12.84778         0.39687
C          1.16452        15.04371         0.09858
C          1.18642        16.42138        -0.08222
C          2.35320        14.31136         0.35624
C          2.39121        17.14218        -0.00574
C          2.44832        18.56942        -0.26122
C          3.83486         2.07788        -0.79937
C          3.71712         3.43388        -0.14147
C          5.04883         1.44942        -0.87230
C          5.00340         4.22096        -0.15209
C          3.68015         6.32006         0.10610
C          3.65920         7.75090         0.36035
C          4.94453         5.61683         0.13288
C          4.81013         8.44421         0.68556
C          3.59465        10.69134         0.40772
C          3.54040        12.15439         0.63425
C          4.87257         9.93241         0.62537
C          4.79823        12.82932         0.98504
C          3.56697        15.02442         0.45748
C          3.59850        16.43830         0.28307
C          4.81395        14.34180         0.85074
C          4.82942        17.15208         0.37846
C          3.58261        19.27842        -0.06613
C          4.80291        18.64841         0.55731
C          6.28991         2.14660        -0.60493
C          6.23128         3.56989        -0.25989
C          7.49000         1.51744        -0.77921
C          7.45645         4.27951        -0.01074
C          6.14261         6.30046         0.45984
C          6.05215         7.68967         0.94714
C          7.39450         5.64745         0.41558
C          7.34053         8.43805         1.23618
C          6.09260        10.69512         1.04161
C          6.08223        12.07175         1.02050
C          7.33281         9.94422         1.34625
C          7.32784        12.89593         1.05772
C          6.09966        15.01165         0.54078
C          6.06628        16.45847         0.36725
C          7.26836        14.28709         0.52643
C          7.26804        17.17986         0.27588
C          6.08586        19.32052         0.17394
C          7.28539        18.62235         0.13206
C          8.78077         2.27924        -0.82149
C          8.70143         3.61901        -0.13304
C          9.97437         1.47822        -0.40351
C          9.90097         4.27303         0.25052
C          8.62573         6.36036         0.69891
C          8.60961         7.73553         1.01021
C          9.86058         5.62839         0.64432
C          9.86454         8.51465         1.10742
C          8.67435        10.70766         1.24968
C          8.67090        12.18969         1.04371
C          9.83968         9.95517         0.82388
C          9.87292        12.80922         0.41458
C          8.53142        14.93749         0.13090
C          8.51395        16.45066         0.04905
C          9.84660        14.23918         0.20060
C          9.81376        17.15074         0.34917
C          8.53433        19.27729        -0.12313
C          9.78441        18.62066        -0.03769
C         11.15456         2.11232        -0.03829
C         11.16246         3.54336         0.20833
C         12.37850         1.38852         0.10524
C         12.38029         4.17744         0.44370
C         11.11510         6.29655         1.03682
C         11.16248         7.79114         1.04029
C         12.41890         5.57964         0.88170
C         12.38608         8.44903         0.53123
C         10.95605        10.58725         0.12965
C         10.97491        12.06866         0.03511
C         12.26620         9.78622        -0.07753
C         12.16993        12.74581        -0.54469
C         11.00013        14.92024        -0.17056
C         10.95837        16.39703        -0.31159
C         12.24381        14.23355        -0.42550
C         12.24128        17.13854        -0.44889
C         10.99225        19.28198        -0.18860
C         12.27947        18.55688         0.08710
C         13.59795         2.04870         0.30068
C         13.61967         3.47789         0.41302
C         14.83845         1.34581         0.43622
C         14.85179         4.18644         0.52184
C         13.67181         6.34969         0.71482
C         13.60286         7.77000         0.57882
C         14.87791         5.63388         0.57541
C         14.86117         8.55504         0.54256
C         13.54691        10.42847        -0.65027
C         13.44321        11.95549        -0.81921
C         14.82976         9.97034         0.03308
C         14.75047        12.70507        -0.97147
C         13.43546        14.93276        -0.64720
C         13.50348        16.37633        -0.54994
C         14.70844        14.21721        -0.91945
C         14.67967        17.09927        -0.67264
C         13.53361        19.26555        -0.31803
C         14.69634        18.55943        -0.55849
C         16.03140         2.02180         0.56867
C         16.06943         3.45999         0.52718
C         17.28856         1.23310         0.84299
C         17.32071         4.15633         0.43286
C         16.14414         6.31505         0.50776
C         16.16154         7.80385         0.62241
C         17.33188         5.59762         0.38049
C         17.41200         8.55066         0.23882
C         16.10318        10.60628        -0.42250
C         16.06626        12.01943        -0.74624
C         17.30465         9.92703        -0.30435
C         17.23960        12.75734        -0.81982
C         15.97080        14.95072        -0.77027
C         15.93720        16.38815        -0.95889
C         17.26409        14.23866        -0.48870
C         17.26548        17.18560        -0.89997
C         15.95772        19.25607        -0.50926
C         17.18003        18.60299        -0.49696
C         18.55121         1.99418         0.52875
C         18.52177         3.39832         0.34917
C         19.76053         1.29849         0.45842
C         19.75514         4.05002        -0.12594
C         18.66974         6.32165         0.40417
C         18.64101         7.77208        -0.05444
C         19.77211         5.53623        -0.29294
C         19.81117         8.42994        -0.32475
C         18.54370        10.54500        -0.79182
C         18.51816        12.07174        -1.04083
C         19.83558         9.87826        -0.48786
C         19.81775        12.82152        -0.90941
C         18.50532        14.97160        -1.05098
C         18.49677        16.43528        -0.65361
C         19.76524        14.26368        -0.60289
C         19.61267        17.09098        -0.16003
C         18.38599        19.24435        -0.09500
C         19.56814        18.52907         0.07565
C         20.99210         1.96138         0.24660
C         21.03089         3.31754        -0.03277
C         22.27148         4.05019        -0.10770
C         21.10973         6.21298        -0.48095
C         21.11304         7.71565        -0.48322
C         22.32455         5.40002        -0.25220
C         22.32941         8.50410        -0.20378
C         21.02038        10.57009        -0.36616
C         21.07839        12.05041        -0.51889
C         22.26438         9.85243        -0.13759
C         22.09310        12.81123         0.22321
C         20.86944        14.92338        -0.10487
C         20.85209        16.37768         0.08465
C         22.01219        14.15703         0.35587
C         21.97488        17.08718         0.47073
C         20.76551        19.19583         0.49713
C         21.93066        18.49541         0.67318
O          8.18955        12.86935         2.24632
O         17.03831         8.34513         1.66979
O         14.74763        13.45793        -2.22108
O          8.45277        15.65074        -1.16826
O         14.76758         9.72004         1.45752
O          4.71077        13.70895         2.17111
O         18.47142        11.11601        -2.13148
O         10.69954         8.29474         2.35604
O          6.54341         7.84453         2.32835
O         20.83879        12.48932        -1.89795
O          2.10354         9.13988         1.66997
O         11.78338         5.72635         2.21551
O         21.18318         6.95788        -1.75216
O         11.23929         9.83715        -1.13258
O         11.36649        16.93434        -1.60337
O          8.06875        10.34557         2.53224
O         19.43137         4.73565        -1.43983
O         16.62829        16.88967        -2.17643
O         12.51858        12.26223        -1.89917
O          4.43566        10.35476        -0.75420
O          8.99388         2.58381        -2.26850
H          8.19460         3.05999        -2.58071
O         12.37600        18.40116         1.57197
H         12.46607        19.30049         1.95446
O         19.07418         6.38353         1.80940
H         18.43095         6.99039         2.25164
O         13.69331         9.90010        -1.98543
H         12.96164        10.28515        -2.52120
O          4.64215        18.86518         2.02480
H          3.84435        18.36569         2.30309
O         17.44588        14.29145         0.97777
H         16.69148        13.83075         1.40300
O         18.42558        14.85620        -2.48496
H         19.19020        15.31825        -2.88506
O         17.29687         0.84757         2.23627
H         17.26046         1.66317         2.77736
O          3.46214         3.15559         1.28334
H          2.62075         2.65417         1.33366
O          9.98619        17.05755         1.78405
H         10.82390        17.53814         2.01067
H          0.56232         1.66912        -1.76847
H          0.49826         4.08655        -1.35821
H          2.67148         0.38016        -1.55569
H          0.37140         5.87444        -0.80054
H          0.20423         8.21734        -0.18701
H          0.15523        10.23578        -0.11266
H          0.25528        12.65335        -0.21680
H          0.19853        14.52641         0.03665
H          0.24995        16.95755        -0.29285
H          1.53936        19.06213        -0.63868
H          5.10842         0.41672        -1.25054
H          3.60007        20.36208        -0.25577
H          7.50891         0.45703        -1.07535
H          6.08138        20.41106         0.02977
H          9.96232         0.38867        -0.55907
H          8.52117        20.35784        -0.33301
H         12.36524         0.29356        -0.00082
H         11.01225        20.35821        -0.41861
H         14.83023         0.24574         0.44667
H         13.58269        20.35852        -0.19170
H         17.27415         0.27752         0.25867
H         15.93202        20.33097        -0.27377
H         19.75919         0.21229         0.62630
H         18.36929        20.32342         0.11898
H         21.93036         1.39209         0.31586
H         23.20586         3.47886        -0.00091
H         23.30070         5.90198        -0.31228
H         23.29704         7.98884        -0.13077
H         23.18654        10.42949         0.01418
H         22.91129        12.27090         0.71971
H         22.80160        14.67546         0.91644
H         22.93391        16.57650         0.62863
H         20.73252        20.28112         0.66959
H         22.84727        19.01539         0.98437
