         261
 CSIRO Nanostructure Databank - Neutral Graphene Oxide Data Set
C        -10.98448         0.70491        -1.36425
C         -9.73403         1.46928        -0.97291
C         -8.77640         0.56484        -0.19078
C         -7.63324         1.19858         0.54872
C         -6.32408         0.42462         0.60074
C         -5.00893         1.17231         0.60409
C         -3.77639         0.60905        -0.06246
C         -2.46784         1.32278         0.10516
C         -1.21012         0.49480         0.18057
C          0.08574         1.21567         0.66144
C          1.36538         0.43242         0.27620
C          2.69196         1.18436         0.29343
C          3.76954         0.67304        -0.69132
C          5.10800         1.39380        -0.50822
C          6.35641         0.73709        -0.96483
C          7.53153         1.53745        -1.44435
C          8.86574         0.86016        -1.26928
C         10.03335         1.73578        -0.68049
C         11.06974         0.99950         0.07803
C         -9.98320         2.72145        -0.20500
C         -8.90472         3.52662         0.45064
C         -7.60853         2.70737         0.75937
C         -6.29258         3.41521         0.93480
C         -5.00061         2.62187         0.94344
C         -3.70227         3.38189         1.07130
C         -2.42468         2.74493         0.61855
C         -1.13174         3.49250         0.73677
C          0.14427         2.73077         0.43279
C          1.44439         3.44589         0.59808
C          2.74337         2.65483         0.61827
C          4.03698         3.49444         0.38510
C          4.99126         2.89209        -0.64388
C          6.08208         3.69844        -1.30392
C          7.41589         3.03141        -1.56633
C          8.71831         3.84258        -1.32776
C          9.65284         3.09351        -0.39298
C         -8.57355         4.83204        -0.35857
C         -7.39744         5.62603         0.17046
C         -6.16043         4.82914         0.40908
C         -4.84393         5.54490         0.47750
C         -3.68003         4.86342         1.12460
C         -2.39441         5.61568         1.37574
C         -1.10115         4.82523         1.46800
C          0.21112         5.55871         1.60564
C          1.48781         4.84437         1.20377
C          2.76238         5.62581         1.03735
C          3.72407         4.94624         0.07451
C          4.67886         5.72630        -0.75349
C          6.03199         5.26808        -1.42273
C          7.32003         5.97091        -0.90995
C          8.47770         5.25585        -0.85118
C         -7.36666         6.98338         0.15623
C         -6.09865         7.77124         0.14317
C         -4.78391         7.02710         0.22801
C         -3.50666         7.78584         0.51888
C         -2.37985         7.10589         1.24868
C         -1.07662         7.85465         1.44152
C          0.21266         7.08823         1.67049
C          1.50539         7.87155         1.46925
C          2.85866         7.13269         1.41728
C          3.87996         7.89392         0.55090
C          4.69980         7.16922        -0.45747
C          6.49411         8.37127        -0.89275
C          7.44926         7.42112        -0.65609
C         -6.06060         9.22052         0.44461
C         -4.90575         9.91144         0.56878
C         -3.55811         9.28769         0.54759
C         -2.38226        10.03871         1.17386
C         -1.06582         9.28886         1.03044
C          0.09689         9.92838         0.77173
C          1.42721         9.30895         1.00267
C          2.63714        10.00282         0.48265
C          3.84048         9.37827         0.35641
C          5.07674        10.13964         0.08629
C          6.29969         9.71807        -0.36086
C        -11.10719        -0.63079        -1.36186
C        -10.06848        -1.60807        -0.84463
C         -8.72938        -0.87187        -0.64945
C         -7.53740        -1.67258        -0.28879
C         -6.29347        -1.01572         0.23596
C         -5.06712        -1.61517        -0.40943
C         -3.82008        -0.81083        -0.56859
C         -2.52223        -1.47303        -0.97834
C         -1.24349        -0.90056        -0.39514
C          0.04706        -1.53634        -0.85718
C          1.32778        -0.95762        -0.31708
C          2.62096        -1.64095        -0.74667
C          3.89057        -0.85358        -0.77452
C          5.10350        -1.46919        -1.41975
C          6.37131        -0.69902        -1.39473
C          7.62483        -1.36778        -0.89493
C          8.91968        -0.62896        -1.04961
C         10.13674        -1.27014        -0.42482
C         11.14433        -0.34762         0.15236
C         -9.80502        -2.76891        -1.83165
C         -9.30904        -3.95127        -1.49909
C         -7.51314        -3.13568         0.08865
C         -6.30055        -3.88150        -0.43754
C         -5.03590        -3.10563        -0.60796
C         -3.87435        -3.70123        -1.37417
C         -2.56282        -2.92297        -1.38664
C         -1.28154        -3.70380        -1.23514
C          0.01553        -2.94477        -1.39043
C          1.27730        -3.76517        -1.50081
C          2.59098        -2.99138        -1.42703
C          3.89618        -3.73530        -1.53286
C          5.20514        -2.98236        -1.36807
C          6.46919        -3.63605        -0.89432
C          7.62699        -2.78935        -0.43877
C          8.91209        -3.42613        -0.01542
C         10.02538        -2.66311         0.10579
C         -9.06624        -5.22949        -1.20736
C         -7.76449        -5.87040        -0.93695
C         -6.50113        -5.11450        -1.35669
C         -5.19847        -5.97850        -1.23632
C         -3.90251        -5.20127        -1.48563
C         -2.61372        -5.97379        -1.27862
C         -1.30543        -5.20329        -1.18293
C         -0.05115        -6.09526        -1.32276
C          1.26056        -5.27004        -1.44646
C          2.55965        -5.98041        -1.11054
C          3.90087        -5.22636        -1.26475
C          5.13661        -5.82284        -0.61169
C          6.47052        -5.09181        -0.52865
C          7.65472        -5.67642         0.18545
C          8.86247        -4.82066         0.60009
C         -7.73124        -7.05975        -0.29282
C         -6.51607        -7.92734        -0.03201
C         -5.21242        -7.29160        -0.52765
C         -3.92497        -7.87386        -0.00503
C         -2.63596        -7.22732        -0.43754
C         -1.38803        -7.60070         0.32926
C         -0.07501        -7.05272        -0.11848
C          1.12417        -8.01555        -0.06182
C          2.47434        -7.24706        -0.28367
C          3.58061        -7.48457         0.70857
C          4.92161        -6.81372         0.50285
C          6.14929        -7.39605         1.25603
C          7.47203        -6.97610         0.85999
C         -6.40467        -8.34607         1.41991
C         -5.25318        -8.78025         1.95504
C         -3.96538        -8.75219         1.20834
C         -2.69362        -9.05829         1.98208
C         -1.41583        -8.80823         1.20168
C         -0.25382        -9.42260         1.55296
C          1.06071        -8.94715         1.13988
C          2.19246        -9.40501         1.74202
C          3.46380        -8.64164         1.67110
C          4.72391        -9.22740         2.17375
C          5.93665        -8.67121         1.97298
O         -3.19377         1.38580        -1.16081
O          4.81954        -6.08774        -1.99252
O          5.23082         7.42530         0.87126
O         -4.79788        -0.90450        -1.65178
O         -0.42644         4.88629         2.73719
O          1.35720        -0.76856         1.12120
O         -7.75470        -1.24518        -1.66905
O          9.93310        -1.24895        -1.88164
O          9.89902         1.35772        -2.10404
O         -7.12377         3.13087         2.07739
O         -2.49501        -7.26297        -1.89727
O         -4.07660        -4.36087        -2.65446
O          3.26363        -3.14412        -2.70731
O         -3.10452         8.56918        -0.64339
O          2.52185         4.83770         2.23433
O          7.30851        -1.71862         0.51650
O         -0.54081         7.62330         2.78310
O          0.04584        -1.80100        -2.28465
O         -0.65973        -6.52159         1.07443
O          4.92657         3.19732        -2.05838
O          5.93753         5.57632        -2.75931
O         -6.58262        -4.67597        -2.65124
O         -5.32637         7.39831        -1.05881
O         -1.90951         3.60741        -0.48163
O         -5.24846         4.81935        -0.74423
O          5.29046         7.93274        -1.47863
O         -8.77862         0.62799         1.26055
O          7.41151         2.19511        -2.74969
O          3.16641        -7.24730         2.08438
O         -1.39733        -0.69985         1.03133
O          3.43577         5.24155        -1.32528
O          0.91805        -8.84939        -1.16704
O         -3.84541         4.06966         2.35150
O         -3.94057        -9.33827        -0.12274
O         -5.27528        -3.92333         0.60111
O          1.59754         8.95579         2.44034
O          0.81706         3.29197        -0.72014
O          5.68761        -0.93407        -2.64639
O          6.05300         0.89675         0.46658
O         -6.27521        -0.64315         1.62123
O          2.99879         1.64649         1.63213
O         -4.84860         1.60538         1.99102
O         -5.22592        -7.19222        -1.99765
O          5.36862        -6.21533         1.73915
O          2.76623        -7.29996        -1.69054
O         -1.27444        -4.40885         0.04852
O         -8.22347        -3.58535         0.97351
O         -2.49760        -1.86126        -2.37062
O          6.19858        -3.45919        -2.31798
O          3.55689        -1.63280         0.39640
O          1.26512        -4.57651        -2.71392
O          7.51537        -5.80657        -1.27782
O         -2.73645         6.48488         2.51124
O         -6.71558        -9.13864        -0.79815
H         -6.39399        -8.96247        -1.70975
O          3.24208         1.03421        -1.98927
H          3.75215         1.77466        -2.39551
O          8.86966        -4.68699         2.02699
H          8.15410        -4.07519         2.29812
O         -8.22855         4.44216        -1.69600
H         -7.40760         4.90020        -1.97937
O         -9.44209         4.01681         1.69130
H         -9.42572         3.28652         2.34611
O          9.41378         3.95168        -2.59056
H          9.11547         3.20526        -3.16285
O        -10.54791        -2.09632         0.40797
H         -9.89355        -2.73740         0.77902
O          3.37605         7.12826         2.75281
H          3.09967         7.97065         3.17995
O          4.80602         3.47951         1.59892
H          4.20569         3.71278         2.34485
O         -2.68260        -8.19475         3.12866
H         -1.78769        -8.20137         3.52580
O          0.00738         1.18387         2.09897
H          0.12649         0.24646         2.37987
O         -9.01864         1.81335        -2.20036
H         -8.83717         2.78648        -2.21663
O         -0.12488        -6.87364        -2.50242
H          0.33803        -7.74895        -2.32946
O         -2.62121        10.23734         2.57357
H         -2.21117         9.50477         3.08089
H         11.94474        -0.80069         0.75702
H         11.81603         1.60680         0.61199
H         10.10423         3.60632         0.47003
H          9.40448         5.80187        -0.61026
H          8.39554         7.73294        -0.18798
H          7.14016        10.42959        -0.33148
H          5.00463        11.19874         0.38582
H          2.55333        11.08626         0.30855
H          0.08217        10.99417         0.49431
H         -2.29932        11.04847         0.69440
H         -4.94779        10.98396         0.81107
H         -7.02142         9.74450         0.55904
H         -8.29967         7.53672        -0.04107
H         -9.49822         5.46793        -0.37742
H        -11.01839         3.02133         0.02220
H        -11.82094         1.31402        -1.74264
H        -12.05983        -1.07190        -1.69465
H         -9.89353        -2.51780        -2.90502
H         -9.94668        -5.88549        -1.06580
H         -8.69101        -7.52656        -0.01592
H         -7.32793        -8.36776         2.01796
H         -5.21735        -9.10984         3.00387
H         -2.72143       -10.13380         2.32334
H         -0.28119       -10.23795         2.29492
H          2.12072       -10.18513         2.51709
H          4.65730       -10.19799         2.68769
H          6.83831        -9.19341         2.32630
H          8.34920        -7.59658         1.09409
H          9.79197        -5.38130         0.32703
H         10.93222        -3.09895         0.55392
