         349
 CSIRO Nanostructure Databank - Neutral Graphene Oxide Data Set
C          1.79337         1.35798         1.35208
C          1.73792         2.63590         1.98340
C          2.87751         1.00857         0.59369
C          2.70939         3.57158         1.71130
C          1.43673         6.73865         1.97364
C          1.30554         8.02635         1.42527
C          2.56451         5.97772         1.69814
C          2.35782         8.59445         0.72254
C          1.01705        10.73068         0.29608
C          1.11805        12.07582         0.46119
C          2.22764         9.91632         0.06232
C          2.34667        12.79095         0.23538
C          1.53000        14.78360         1.42141
C          1.59171        16.12488         1.74084
C          2.49161        14.13832         0.57618
C          2.57910        16.96036         1.17332
C          2.66445        18.33516         1.48654
C          3.98856         1.91082         0.40462
C          3.79833         3.31482         0.79977
C          5.22115         1.33370         0.09774
C          4.62456         4.31479         0.28871
C          3.65578         6.50515         0.94284
C          3.58431         7.87471         0.55660
C          4.80995         5.73037         0.55095
C          4.77621         8.52534         0.11055
C          3.46728        10.61859        -0.37656
C          3.38710        12.12755        -0.64363
C          4.81017        10.03865         0.02565
C          4.73978        12.81673        -0.61054
C          3.62299        14.89996         0.05676
C          3.53233        16.37189         0.21454
C          4.70793        14.27751        -0.55005
C          4.74260        17.21441        -0.14594
C          3.75752        19.11364         1.13008
C          4.88274        18.55019         0.46647
C          6.49255         1.99923         0.16369
C          6.54815         3.42138        -0.12405
C          7.66234         1.37377         0.56335
C          7.51571         4.27995         0.29939
C          6.01330         6.39225         0.17657
C          5.97351         7.81367         0.05169
C          7.41123         5.76634         0.09055
C          7.27068         8.59145         0.08408
C          5.89983        10.58662        -0.92259
C          5.89725        12.11894        -0.82056
C          7.25325         9.95003        -0.60987
C          7.13175        12.80446        -1.27643
C          5.88774        15.04948        -1.04016
C          5.95582        16.52114        -0.69660
C          7.21153        14.33882        -1.42236
C          7.27132        17.13701        -0.40963
C          6.09982        19.20593         0.35945
C          7.29265        18.51200        -0.02421
C          8.87510         2.12758         0.63564
C          8.84185         3.65065         0.64214
C         10.10144         1.50072         0.64690
C          9.87820         4.16394        -0.34489
C          8.36852         6.35387        -1.02064
C          8.47685         7.63826        -0.18453
C          9.73200         5.56005        -0.94294
C          9.75249         8.43933        -0.35686
C          8.41779        10.63280        -0.76327
C          8.41606        12.02646        -1.31925
C          9.72258         9.94797        -0.54366
C          9.70157        12.86166        -1.48924
C          8.46633        14.96237        -0.77041
C          8.46544        16.38023        -0.40803
C          9.65421        14.25585        -0.85098
C          9.69346        17.02367        -0.03717
C          8.53051        19.17083         0.08534
C          9.74109        18.46373         0.08787
C         11.31739         2.20827         0.30538
C         11.20992         3.54095        -0.19228
C         12.55273         1.54792         0.25100
C         12.34222         4.18843        -0.72398
C         11.03013         6.27522        -0.95194
C         10.97098         7.75145        -0.92374
C         12.25278         5.62053        -0.97778
C         12.24374         8.53133        -0.99190
C         10.94611        10.64564        -1.16418
C         10.93626        12.13976        -1.01388
C         12.24320        10.00610        -0.61571
C         12.22112        12.86972        -1.30507
C         10.92297        14.87090        -0.50252
C         10.88795        16.22271         0.02036
C         12.16624        14.22172        -0.63083
C         12.04160        16.67541         0.65695
C         10.95918        19.25250         0.07623
C         12.14116        18.81185         0.64732
C         13.69711         2.16112        -0.34214
C         13.57164         3.50706        -0.80557
C         14.88386         1.43450        -0.58085
C         14.76070         4.22249        -1.30636
C         13.52421         6.33897        -0.99805
C         13.51850         7.79592        -0.78073
C         14.73322         5.68995        -1.11205
C         14.80549         8.57452        -0.89790
C         13.51431        10.71907        -1.03647
C         13.49760        12.11685        -1.02818
C         14.74615        10.03716        -1.11123
C         14.70913        12.84752        -0.97621
C         13.40722        14.80433        -0.22246
C         13.34682        16.05841         0.54058
C         14.65608        14.23236        -0.54268
C         14.64391        16.92548         0.66567
C         13.47564        19.22818         0.40990
C         14.63871        18.42766         0.54430
C         16.04062         1.94997        -1.39410
C         16.04060         3.48246        -1.53379
C         17.23165         1.43108        -0.65665
C         17.37019         4.24626        -1.50570
C         15.99773         6.40696        -1.13709
C         16.02334         7.82417        -1.15620
C         17.21063         5.70607        -1.15553
C         17.23513         8.54194        -1.58850
C         15.94038        10.76675        -1.29581
C         15.93708        12.16583        -1.16569
C         17.18259        10.05411        -1.67669
C         17.21516        12.91710        -1.18847
C         15.88024        14.95530        -0.28557
C         15.86860        16.25010         0.18819
C         17.17785        14.34553        -0.71402
C         17.12861        16.94937         0.62219
C         15.86708        19.07372         0.29515
C         17.13769        18.42241         0.26590
C         18.38532         2.17822        -0.37241
C         18.47168         3.58928        -0.69059
C         19.53434         1.53480         0.13892
C         19.63354         4.28684        -0.41768
C         18.43117         6.48631        -0.87780
C         18.53591         7.88021        -1.34687
C         19.67951         5.76399        -0.51176
C         19.74830         8.53593        -1.34104
C         18.49047        10.79615        -1.67327
C         18.49295        12.18247        -1.19720
C         19.78422         9.98730        -1.67233
C         19.66608        12.70845        -0.40256
C         18.44297        14.97426        -0.24032
C         18.40118        16.24512         0.24637
C         19.70040        14.22311        -0.25749
C         19.64142        17.01764         0.57521
C         18.31936        19.09320         0.05313
C         19.63448        18.37444        -0.13682
C         20.77905         2.20705         0.27317
C         20.83506         3.63994         0.03964
C         21.95242         1.48760         0.51056
C         22.04655         4.34950         0.06212
C         20.96895         6.46026        -0.66335
C         20.99647         7.83863        -0.99647
C         22.14665         5.73241        -0.36729
C         22.25745         8.50238        -1.01270
C         21.06502        10.74465        -1.43520
C         21.00566        12.14940        -0.89008
C         22.33733         9.94798        -1.34158
C         22.24712        12.72506        -0.32224
C         20.87943        14.83501         0.10818
C         20.92417        16.27013         0.32460
C         22.10844        14.01752         0.45348
C         22.08510        16.98535         0.46622
C         20.86385        19.14241         0.28829
C         22.06795        18.46072         0.50072
C         23.20982         2.15776         0.77953
C         23.26829         3.68471         0.52564
C         24.48121         1.33759         0.70207
C         24.57393         4.31225         0.25153
C         23.40493         6.40369        -0.38098
C         23.44595         7.80114        -0.67457
C         24.62132         5.66973        -0.10226
C         24.71913         8.50001        -0.55389
C         23.59937        10.70872        -0.97589
C         23.45418        12.11135        -0.48841
C         24.77840         9.92501        -0.54016
C         24.69800        12.81278        -0.09197
C         23.38733        14.81237         0.50321
C         23.35733        16.27972         0.85460
C         24.58005        14.17355         0.47201
C         24.59195        16.99023         0.32069
C         23.29351        19.16140         0.63809
C         24.56441        18.50939         0.32172
C         25.75187         2.15088         0.69914
C         25.77763         3.55022         0.42565
C         26.93855         1.45551         0.88626
C         27.04329         4.19968         0.27781
C         25.89503         6.35278        -0.15035
C         25.90646         7.75956        -0.32679
C         27.10478         5.61299         0.04454
C         27.23464         8.46774        -0.45246
C         25.97915        10.59614        -0.16530
C         25.98943        12.07331         0.02016
C         27.18668         9.91989        -0.03648
C         27.11347        12.61322         0.90738
C         25.83399        14.89095         0.82587
C         25.88194        16.32618         0.54126
C         27.13469        14.14180         0.97759
C         27.07885        17.01703         0.59363
C         25.86666        19.17666         0.43836
C         27.05247        18.47752         0.48131
C         28.19512         2.09445         0.77237
C         28.24576         3.45649         0.44034
C         29.42135         1.35883         1.03984
C         29.57940         4.08007         0.10730
C         28.38714         6.27711         0.11525
C         28.36486         7.77344         0.30939
C         29.57836         5.58214         0.24501
C         29.66321         8.46159        -0.05645
C         28.42853        10.62291         0.21332
C         28.43271        12.00445         0.49561
C         29.67621         9.92698         0.12133
C         29.64166        12.74943         0.50343
C         28.38189        14.90839         0.75975
C         28.32917        16.29807         0.72107
C         29.63632        14.18777         0.60930
C         29.60353        17.08531         0.91378
C         28.31710        19.17585         0.39676
C         29.51868        18.52342         0.44999
C         30.62162         1.99691         1.10378
C         30.73254         3.40622         0.81463
C         31.87672         4.11526         1.07776
C         30.86248         6.24571         0.40062
C         30.95653         7.69405         0.07292
C         31.96274         5.51676         0.79984
C         32.16037         8.49580         0.34112
C         30.89166        10.61337         0.22806
C         30.88255        12.05142         0.32198
C         32.12400         9.85280         0.33716
C         32.07800        12.80597         0.23164
C         30.84677        14.90538         0.45176
C         30.84737        16.36416         0.44149
C         32.05639        14.18495         0.27305
C         31.96355        17.10532         0.14200
C         30.75424        19.22498         0.20338
C         31.92908        18.53984         0.07747
O          5.42515         3.91900        -0.80032
O         25.72038        12.82234        -1.19167
O         11.51995         8.24397        -2.21212
O         23.28168        10.36179        -2.37181
O          8.30028         6.64958         1.02679
O          2.64047         4.77437         2.40939
O         18.84242         6.37342         0.56117
O         23.17862         3.10959         1.88248
O          5.64469        16.07770        -2.06320
O          9.97458         9.35092         0.75478
O         19.20785        10.42936        -2.92503
O          3.60116        17.12981        -1.04274
O         24.43797        17.67321        -0.94089
O         15.22602         3.86521        -2.69433
O          2.71868         9.84820        -1.35162
O         14.19624         8.21180         0.45117
O         14.09207        16.21325         1.79883
O          9.58878         4.36378        -1.77367
O         21.14413        11.90003        -2.31488
O         30.33334         7.97736        -1.24281
O         17.01821         9.23531        -2.87386
O         17.20337        14.06801        -2.15728
O         26.38222        14.58295         2.16681
O          7.57124        12.11891        -2.51154
O         11.97350        17.72635         1.55420
O         24.48219         0.55701        -0.50235
H         23.68109        -0.00507        -0.51755
O          5.53930        10.21885        -2.26703
H          6.15075        10.70799        -2.86637
O         21.87182        13.59709         1.85976
H         22.19468        14.32675         2.43679
O         19.50453        12.18547         0.96780
H         20.21837        12.59259         1.52015
O          9.28968         4.09156         1.94689
H          9.11284         5.05824         2.00879
O         17.04910        16.90985         2.08555
H         17.86128        17.36362         2.42020
O          5.08919        10.53179         1.35927
H          5.92220        10.09044         1.66945
O         12.26233        10.14480         0.82080
H         13.02418         9.61033         1.15012
O          7.43562        14.56947        -2.83618
H          6.90663        15.37168        -3.07848
O         26.84582        12.09462         2.23657
H         26.55356        12.85937         2.78909
O         19.65971        17.32098         2.01199
H         19.84659        16.48434         2.48839
O         29.75838        17.17326         2.38089
H         30.58792        17.66840         2.55159
O          7.92010         6.45346        -2.34120
H          8.18276         5.63596        -2.81775
O          2.91278        12.31560        -2.00320
H          2.60252        11.43055        -2.31584
O         27.58598         8.43188        -1.86459
H         26.89952         8.92421        -2.36233
O          9.80521        13.14716        -2.92320
H          8.91543        13.49572        -3.19950
O          7.40560         8.98161         1.49239
H          7.73918         8.18488         1.97173
O         28.17335         8.00941         1.72851
H         27.32821         7.59253         1.99856
O         12.35306        13.08905        -2.75811
H         11.49581        13.46533        -3.08662
O         23.39787        16.35143         2.32000
H         23.32496        17.29664         2.57527
O         19.77191        18.09644        -1.56380
H         19.87044        18.94927        -2.03557
O         17.87562         4.24562        -2.87952
H         17.08768         4.33080        -3.46441
O         16.00935         1.36513        -2.72732
H         15.45432         1.96183        -3.27923
O         10.84779        10.50524        -2.59912
H         11.43906        11.17433        -3.01782
O         29.79765         3.80656        -1.32886
H         29.17122         4.36907        -1.83280
H          0.97988         0.63964         1.52253
H          0.91675         2.88271         2.66742
H          2.95965        -0.00746         0.18224
H          0.64172         6.31774         2.60168
H          0.37369         8.58378         1.58652
H          0.04540        10.23298         0.42470
H          0.21525        12.64165         0.73453
H          0.72975        14.17797         1.86679
H          0.85575        16.55884         2.43304
H          1.87016        18.77819         2.10539
H          5.24391         0.23442         0.02497
H          3.81577        20.15743         1.47048
H          7.68091         0.29426         0.77208
H          6.19645        20.23642         0.73222
H         10.14590         0.40334         0.72030
H          8.54195        20.25631         0.25852
H         12.62464         0.50572         0.59528
H         10.92791        20.22394        -0.43847
H         14.91912         0.37866        -0.27317
H         13.62076        20.24238         0.00584
H         17.24270         0.35415        -0.42960
H         15.84492        20.16139         0.11999
H         19.48859         0.45767         0.35821
H         18.29371        20.17980        -0.13471
H         21.93311         0.38942         0.43414
H         20.87889        20.23906         0.18382
H         24.50187         0.63414         1.58767
H         23.27667        20.25560         0.75536
H         26.90391         0.37734         1.10067
H         25.88905        20.27716         0.45971
H         29.34365         0.28698         1.27252
H         28.29579        20.25755         0.19024
H         31.52656         1.45271         1.41364
H         32.75041         3.60706         1.51213
H         32.93211         6.01360         0.94344
H         33.11117         7.98449         0.55072
H         33.05992        10.39765         0.52388
H         33.04014        12.29739         0.08679
H         33.00601        14.72684         0.17325
H         32.91552        16.61559        -0.10535
H         30.72121        20.31347         0.04794
H         32.86144        19.07655        -0.14603
