         349
 CSIRO Nanostructure Databank - Neutral Graphene Oxide Data Set
C          1.77555         2.02559         1.88706
C          1.79021         3.41769         2.02804
C          2.86886         1.36452         1.34058
C          2.89604         4.16801         1.58809
C          1.75114         6.45484         1.89986
C          1.81950         7.81772         1.96981
C          2.96078         5.63791         1.85205
C          3.05035         8.54158         1.81749
C          1.98410        10.79830         2.50402
C          2.05065        12.15631         2.63273
C          3.02666        10.05549         1.70960
C          3.17469        12.92710         2.17339
C          2.07803        15.14518         2.56851
C          2.15283        16.52253         2.61739
C          3.18147        14.36120         2.11138
C          3.32173        17.21111         2.20005
C          3.38425        18.64336         2.19689
C          4.00395         2.09315         0.90801
C          4.00669         3.51138         1.03556
C          5.15017         1.39987         0.39438
C          5.11008         4.28001         0.33710
C          4.26075         6.40042         1.52985
C          4.21276         7.87006         1.46293
C          5.33774         5.69808         0.82024
C          5.45429         8.55826         1.12799
C          4.40262        10.64619         1.94353
C          4.43864        12.19769         2.01322
C          5.55935         9.93713         1.41776
C          5.59878        12.85251         1.39470
C          4.34931        15.05332         1.67137
C          4.43075        16.45471         1.72437
C          5.44552        14.29741         0.95959
C          5.60394        17.15905         1.19992
C          4.47974        19.31504         1.71440
C          5.61883        18.62007         1.18874
C          6.35872         2.05218         0.13256
C          6.45782         3.53992         0.41065
C          7.53164         1.37033        -0.21116
C          7.50533         4.21158        -0.48797
C          6.49541         6.38897         0.45750
C          6.58154         7.80247         0.70180
C          7.63190         5.69442        -0.16852
C          7.89918         8.44998         0.59735
C          6.81529        10.69507         1.25189
C          6.72369        12.16038         1.03261
C          8.00685         9.94472         0.68859
C          7.85910        12.83929         0.39915
C          6.79613        14.99108         1.08542
C          6.69951        16.46168         0.75445
C          7.83938        14.21512         0.31106
C          7.74291        17.16655        -0.07619
C          6.76515        19.30776         0.79131
C          7.89814        18.62930         0.25240
C          8.78715         2.05645        -0.35939
C          8.81450         3.46411        -0.36352
C         10.00095         1.32814        -0.50313
C         10.11110         4.22224        -0.40052
C          8.80169         6.33381        -0.48387
C          9.07084         7.70235         0.01732
C          9.90344         5.55868        -1.16713
C         10.29337         8.53007        -0.46585
C          8.93948        10.66384        -0.20279
C          8.92350        12.04187        -0.22460
C          9.78508         9.85139        -1.18131
C          9.98870        12.73015        -0.92124
C          8.90333        14.96813        -0.36600
C          9.05085        16.42709        -0.17363
C         10.04146        14.21301        -0.93000
C         10.18646        17.07752        -0.61973
C          9.06839        19.26270        -0.11825
C         10.19518        18.53900        -0.65610
C         11.19989         1.98879        -0.89792
C         11.19761         3.40269        -1.03703
C         12.40122         1.25200        -1.09242
C         12.29068         4.08620        -1.72027
C         11.20166         6.31122        -1.34244
C         11.22797         7.71867        -1.36302
C         12.34997         5.57492        -1.70380
C         12.36685         8.39098        -1.85645
C         10.97234        10.60787        -1.83928
C         10.92457        12.10016        -1.70093
C         12.26658         9.84829        -2.18424
C         11.91416        12.95975        -2.34331
C         11.41459        14.85380        -0.87143
C         11.35319        16.35398        -1.10354
C         12.32693        14.16850        -1.86226
C         12.41004        17.01421        -1.69880
C         11.28426        19.19194        -1.19746
C         12.40835        18.47706        -1.75104
C         13.62014         1.87789        -1.45472
C         13.57527         3.28102        -1.93337
C         14.84025         1.22280        -1.42607
C         14.84828         4.02755        -1.98872
C         13.54809         6.25010        -2.00866
C         13.56331         7.67040        -2.08363
C         14.79099         5.47609        -2.23427
C         14.82317         8.39843        -2.23390
C         13.57919        10.52274        -2.46601
C         13.66711        11.79165        -2.98169
C         14.81817         9.78132        -2.39815
C         14.87118        12.62442        -3.08619
C         13.69603        14.80750        -2.01087
C         13.59268        16.31110        -2.20620
C         14.77565        14.13879        -2.89666
C         14.68399        16.98923        -2.65422
C         13.46338        19.16196        -2.29766
C         14.68587        18.48899        -2.85047
C         16.10875         1.86443        -1.92388
C         16.05544         3.37802        -1.84272
C         17.29651         1.28580        -1.21044
C         17.26898         4.12396        -1.55826
C         16.11421         6.24134        -2.06836
C         16.06811         7.71209        -1.96982
C         17.26460         5.51340        -1.56149
C         17.22763         8.39974        -1.69584
C         16.09196        10.48474        -2.66499
C         16.15555        11.96898        -2.79137
C         17.34521         9.77600        -2.19118
C         17.30608        12.68922        -2.56961
C         16.07806        14.82828        -2.72944
C         16.03672        16.34572        -2.83187
C         17.25929        14.14403        -2.55441
C         16.92826        16.89186        -1.66357
C         15.91699        19.12666        -2.23947
C         16.96557        18.42756        -1.68674
C         18.41134         2.01824        -0.89130
C         18.45886         3.44861        -1.11221
C         19.51253         1.40647        -0.15203
C         19.64341         4.18133        -0.79598
C         18.26824         6.28056        -0.73517
C         18.51143         7.68935        -1.34327
C         19.60064         5.56869        -0.53539
C         19.43002         8.53188        -0.42706
C         18.48214        10.63260        -1.74145
C         18.65497        11.97363        -2.48443
C         19.56201         9.99095        -0.91702
C         19.75456        12.76758        -1.79904
C         18.50407        14.89051        -2.18866
C         18.35399        16.33076        -1.78896
C         19.68579        14.14758        -1.66819
C         19.41212        17.00172        -1.01397
C         18.08151        19.08277        -1.11276
C         19.27784        18.40305        -0.75029
C         20.70672         2.03274        -0.00565
C         20.88774         3.32760        -0.73928
C         21.73302         1.42575         0.95029
C         21.79162         4.46549         1.26460
C         20.70221         6.36795        -0.01510
C         20.73801         7.78502        -0.23018
C         21.84215         5.77082         0.64541
C         21.92988         8.52186        -0.06906
C         20.89655        10.62452        -0.89272
C         21.04260        11.98916        -1.56418
C         21.99079         9.94627        -0.43555
C         22.11322        12.81823        -0.85645
C         20.67768        14.90134        -0.94640
C         20.56115        16.28270        -0.61925
C         21.74111        14.14092        -0.27582
C         21.64313        16.99105         0.05090
C         20.37823        19.10427        -0.20956
C         21.57514        18.43236         0.13867
C         22.97236         2.24721         1.27194
C         22.94864         3.67930         1.40075
C         24.17024         1.56919         1.36375
C         24.21516         4.40553         1.62098
C         23.06561         6.48781         0.68654
C         23.11167         7.84032         0.33116
C         24.28431         5.86390         1.26924
C         24.30805         8.59954         0.83633
C         23.36865        10.58901        -0.57042
C         23.32770        12.11189        -0.37377
C         24.42155         9.97985         0.30112
C         24.25049        12.75754         0.59175
C         22.76496        14.85339         0.56324
C         22.77888        16.32768         0.54786
C         23.99381        14.13668         1.03509
C         23.95542        17.04464         0.94693
C         22.72244        19.14654         0.53570
C         23.93191        18.48399         0.85255
C         25.45441         2.19165         1.59225
C         25.50907         3.66192         1.77973
C         26.60159         1.44882         1.49530
C         26.83345         4.38678         1.54843
C         25.61604         6.49049         1.00883
C         25.61704         7.85885         0.76336
C         26.85286         5.78794         1.04247
C         26.84256         8.56873         0.73943
C         25.54092        10.69128         0.66186
C         25.45803        12.12917         0.85884
C         26.78331         9.99940         0.90713
C         26.58866        12.80310         1.43979
C         25.14897        14.93016         1.57319
C         25.15718        16.39757         1.37028
C         26.44102        14.21803         1.86168
C         26.36403        17.11707         1.53282
C         25.12930        19.20330         1.04189
C         26.34730        18.54325         1.30339
C         27.94895         2.03559         1.47931
C         28.07597         3.56462         1.40819
C         29.03543         1.23575         0.89185
C         29.21876         4.15704         0.69255
C         28.07129         6.42953         0.66505
C         28.08158         7.87607         0.60237
C         29.24091         5.55187         0.37896
C         29.26142         8.74414         0.53649
C         27.93766        10.75232         1.13524
C         27.83627        12.16694         1.44270
C         29.21027        10.11839         0.95212
C         29.05137        12.91059         1.67221
C         27.65791        15.02445         2.18713
C         27.62359        16.49236         1.90071
C         28.97807        14.29871         2.18485
C         28.80490        17.22105         1.90867
C         27.56303        19.26239         1.30062
C         28.79086        18.62281         1.54317
C         30.15749         1.84058         0.44417
C         30.27525         3.28290         0.32079
C         31.41408         3.79036        -0.33269
C         30.38438         5.97807        -0.33869
C         30.48447         8.33121        -0.03544
C         31.45758         5.13201        -0.66493
C         31.64946         9.09867         0.03204
C         30.39033        10.92750         1.01159
C         30.29435        12.32958         1.41784
C         31.61647        10.36379         0.61707
C         31.46645        13.18175         1.39388
C         30.24045        15.12623         2.28533
C         30.10385        16.65460         2.48663
C         31.44277        14.50333         1.71070
C         31.32681        17.41050         2.03839
C         30.00404        19.33458         1.38956
C         31.25095        18.69732         1.57929
O         15.60594         5.84014        -3.38843
O         14.68078        13.56920        -4.22030
O         18.50440        10.82685        -0.28946
O         23.34328        12.88277        -1.65831
O         24.06753         5.44924         2.66106
O          4.68019        11.33223         3.18286
O         26.81444        14.51618         3.26483
O         29.71744        14.41741         3.45550
O          3.95639         5.90432         2.88947
O          9.04008        14.72076        -1.86737
O         12.65149         3.50437        -3.04187
O         12.53245        12.41530        -3.47349
O         11.07955         8.92729         0.58908
O         26.27234         4.20403         2.88874
O         21.58793        14.21131         1.18232
O         11.20651        10.10747        -3.19120
O         16.36386        16.44343        -0.47426
O         17.00669         9.83620        -3.61195
O         30.51696         7.24241        -0.90110
O          7.97376        10.36012         2.09029
O         24.12479        14.39981         2.47993
O          8.88525         7.76456         1.45642
O         28.39276         2.83277         2.62648
O         18.83863        15.97036        -3.14439
O         21.93407         3.64299        -1.29163
O         19.26479         7.53225        -2.56870
H         18.65398         7.25090        -3.28270
O          5.09561        14.27989        -0.45253
H          4.18228        13.93632        -0.54164
O         19.03663        11.72249        -3.85141
H         19.99434        11.48218        -3.85853
O          2.76163        10.34707         0.28871
H          1.90323         9.93488         0.05428
O         24.03244         8.77849         2.27716
H         24.08823         7.89628         2.70766
O          8.88933         9.44014        -2.22775
H          9.42008         9.42339        -3.06169
O         21.05654         1.11509         2.17894
H         20.77841         1.96467         2.58423
O          9.44498         5.22509        -2.51725
H         10.19451         4.81341        -3.00101
O         10.52896         4.54494         0.95948
H          9.84739         5.12282         1.36826
O         17.62830         6.37195         0.56877
H         18.01403         7.15245         1.04655
O         30.02137        16.88968         3.91995
H         29.65224        16.06210         4.31674
O         11.88375        14.64012         0.48528
H         12.87473        14.70167         0.44784
O         16.25038         1.52297        -3.34898
H         15.52847         1.97631        -3.83492
O          7.19982        17.13980        -1.45068
H          7.36763        16.24432        -1.82090
O         16.54968        16.75090        -4.11564
H         17.48119        16.41618        -4.18430
O          7.09842         4.05607        -1.87960
H          7.81470         4.47860        -2.42540
O          4.62860         4.40368        -1.02891
H          5.40870         4.38800        -1.64083
O         21.56064        11.67352        -2.90878
H         22.08719        12.45135        -3.20520
O          6.95372         3.68631         1.76140
H          6.29745         3.30048         2.37876
O         23.80562        10.30037        -1.92672
H         23.15308        10.73248        -2.53193
O         14.75950        18.78428        -4.27600
H         15.44250        18.17264        -4.64647
O         18.87460         8.62815         0.91093
H         18.39460         9.49176         0.96280
O         20.59942         3.95375         1.68103
H         19.88031         4.60765         1.54614
O          7.16792        14.91260         2.49182
H          8.08523        15.24214         2.59249
O         14.30633        14.65060        -0.67410
H         15.05090        15.33584        -0.56609
H          0.90001         1.45408         2.22461
H          0.92973         3.92583         2.48493
H          2.86418         0.26946         1.24436
H          0.77113         5.96163         1.82853
H          0.88351         8.39083         2.04600
H          1.10276        10.26303         2.88543
H          1.19996        12.67989         3.09366
H          1.15834        14.64848         2.90591
H          1.29120        17.10361         2.97713
H          2.51995        19.20570         2.58002
H          5.08815         0.30814         0.26650
H          4.49476        20.41504         1.72139
H          7.51166         0.27446        -0.31315
H          6.80884        20.40071         0.91839
H          9.99210         0.23270        -0.41486
H          9.15364        20.35620        -0.01665
H         12.40421         0.17689        -0.86017
H         11.29849        20.29196        -1.23517
H         14.88001         0.17343        -1.09541
H         13.43648        20.26216        -2.33109
H         17.27601         0.21041        -0.97461
H         16.01829        20.21613        -2.38353
H         19.33549         0.43211         0.32955
H         18.00307        20.15693        -0.87898
H         22.07591         0.44593         0.52404
H         20.31909        20.19594        -0.09016
H         24.17427         0.48143         1.19340
H         22.69579        20.24617         0.54607
H         26.51941         0.37414         1.26891
H         25.12622        20.29705         0.92479
H         28.92343         0.14275         0.84335
H         27.55064        20.33769         1.06844
H         30.98739         1.23787         0.04631
H         32.23388         3.11415        -0.61127
H         32.30699         5.55128        -1.21912
H         32.57518         8.71533        -0.41565
H         32.54916        10.93872         0.67155
H         32.41162        12.76740         1.01869
H         32.34286        15.11051         1.54192
H         32.31246        16.98313         2.27069
H         29.96981        20.38985         1.08429
H         32.17374        19.25825         1.37132
