         324
 CSIRO Nanostructure Databank - Neutral Graphene Oxide Data Set
C          1.15448         3.32264        -0.09142
C         -0.01186         3.99271        -0.36512
C          1.13075         6.15458        -0.32596
C         -0.02399         5.40930        -0.47757
C          1.07397         7.64839        -0.28265
C         -0.04252         8.43150        -0.84081
C          1.25231        10.54920        -0.78131
C          0.04406         9.77410        -1.02591
C          1.27679        11.97892        -0.89435
C          0.10491        12.74510        -1.26030
C          1.18113        14.85304        -0.55190
C          0.06217        14.09701        -1.15068
C          1.13281        16.38182        -0.42082
C          0.03099        17.19694        -0.97284
C          1.39479        19.26666        -0.96319
C          0.15114        18.53367        -1.15742
C          1.44153        20.67077        -1.06828
C          0.27066        21.46577        -0.82878
C          1.43267        23.62649        -1.36601
C          0.28958        22.82498        -0.78755
C          1.48505        25.07543        -0.93241
C          0.24356        25.79851        -0.85893
C          1.38405        27.95141        -0.61772
C          0.17696        27.13290        -0.58766
C          1.39665        29.30852        -0.04853
C          3.59240         3.35660         0.25569
C          2.38682         4.03820         0.03982
C          3.61937         6.14973        -0.00432
C          2.38368         5.47457        -0.07831
C          3.64246         7.61767        -0.24564
C          2.37704         8.40058        -0.15848
C          3.66525        10.54696        -0.26997
C          2.43164         9.85106        -0.44737
C          3.67258        11.96192        -0.39898
C          2.48868        12.69183        -0.64514
C          3.67256        14.84572        -0.31734
C          2.49638        14.14915        -0.52586
C          3.68630        16.29976        -0.04624
C          2.41868        17.11767        -0.17234
C          3.77906        19.20964        -0.30322
C          2.56110        18.54191        -0.56983
C          4.02866        20.61345        -0.81970
C          2.75107        21.37858        -1.16815
C          3.98475        23.58648        -0.68191
C          2.77620        22.87874        -1.21170
C          3.94126        24.98022        -0.51258
C          2.69612        25.71152        -0.71792
C          3.91675        27.86041        -0.13229
C          2.72939        27.18110        -0.66284
C          3.84761        29.25451         0.16770
C          2.56474        29.93558         0.22204
C          6.00305         3.19513         0.52501
C          4.85702         3.99432         0.22324
C          6.06708         6.22247         0.09431
C          4.86648         5.44970         0.05470
C          6.03770         7.64241         0.60747
C          4.90740         8.39284        -0.05042
C          6.08227        10.54171         0.37670
C          4.87364         9.85777         0.06563
C          6.11669        11.94048         0.23263
C          4.96751        12.64268        -0.34505
C          6.21776        14.84731         0.08951
C          4.98443        14.16554        -0.37376
C          6.26143        16.30832        -0.04448
C          4.96944        17.04610        -0.20234
C          6.07101        19.18121         0.65568
C          4.92384        18.49586         0.06939
C          6.15323        20.72954         0.59406
C          5.07468        21.43851        -0.09475
C          6.33567        23.55310         0.15470
C          5.14177        22.83944        -0.25139
C          6.32390        24.96779         0.12287
C          5.12548        25.69007        -0.11645
C          6.29186        27.83897         0.44443
C          5.10616        27.13028         0.05696
C          6.24014        29.25212         0.64913
C          5.00903        29.93473         0.54105
C          8.57005         3.18133         0.62459
C          7.31557         3.54742         0.13831
C          8.55946         6.23659         0.11558
C          7.32227         5.69005        -0.23196
C          8.56787         7.66117         0.37810
C          7.34707         8.37664         0.48680
C          8.56717        10.50051         0.60586
C          7.33810         9.79622         0.55556
C          8.57236        11.92945         0.91987
C          7.27403        12.70411         0.67755
C          8.62426        14.86172         0.60725
C          7.35328        14.16469         0.45202
C          8.62553        16.31020         0.64364
C          7.44041        17.01267         0.46649
C          8.61896        19.16105         1.19306
C          7.32842        18.40628         0.91169
C          8.60172        20.64832         1.11018
C          7.47312        21.38651         0.79186
C          8.69245        23.52698         0.93865
C          7.51836        22.83910         0.62194
C          8.84828        24.96907         0.67592
C          7.58355        25.72450         0.29017
C          8.70024        27.86168         0.96768
C          7.53331        27.16707         0.58188
C          8.63508        29.28350         1.14944
C          7.43556        29.94655         0.98514
C         10.93305         3.04966         0.20963
C          9.81155         3.87009         0.32832
C         11.02820         6.26436         0.19006
C          9.81410         5.40790        -0.13856
C         10.98819         7.64967         0.06748
C          9.78402         8.38315         0.25394
C         11.02556        10.52035         0.30359
C          9.81413         9.81972         0.37817
C         11.11864        11.95551         0.60989
C          9.85566        12.70365         0.91686
C         11.09103        14.86471         0.64454
C          9.83052        14.16938         0.72425
C         11.09723        16.29773         0.71150
C          9.87221        17.02444         0.82700
C         11.11854        19.13795         1.00723
C          9.88809        18.43001         0.98281
C         11.17364        20.52371         1.65885
C          9.82566        21.31161         1.60764
C         11.13304        23.57553         1.70181
C          9.81929        22.84380         1.57928
C         11.21073        25.04779         1.53751
C          9.98113        25.74708         1.25393
C         11.11300        27.90617         1.67335
C          9.91649        27.13822         1.28578
C         11.14068        29.36389         1.43021
C          9.83660        30.10394         1.57040
C         13.50239         3.10371        -0.29905
C         12.31595         3.48948         0.26808
C         13.48379         6.23405        -0.17830
C         12.33578         5.70901         0.36002
C         13.50299         7.66440        -0.55398
C         12.21932         8.39578        -0.26746
C         13.42227        10.57195        -0.54159
C         12.34361         9.80736         0.24140
C         13.47744        12.02828        -0.13163
C         12.34132        12.71181         0.23292
C         13.51377        14.89540         0.26865
C         12.30746        14.16022         0.40414
C         13.54670        16.28229         0.49220
C         12.32714        17.01857         0.67135
C         13.64539        19.15058         0.98644
C         12.31902        18.44269         0.80046
C         13.59362        20.66694         0.73484
C         12.32596        21.36528         1.08222
C         13.67819        23.54454         1.40087
C         12.39387        22.80089         1.52612
C         13.71819        25.00285         1.35385
C         12.44671        25.70198         1.52921
C         13.66117        27.93370         1.28001
C         12.46173        27.16864         1.66542
C         13.57961        29.31407         1.05092
C         12.31639        30.01357         1.23379
C         15.97383         3.34204        -0.15424
C         14.72562         3.92547        -0.18346
C         16.00229         6.21856        -0.34586
C         14.68362         5.40757        -0.36253
C         15.97545         7.70278        -0.22672
C         14.78219         8.42157        -0.42542
C         15.96742        10.57679        -0.41482
C         14.75855         9.84771        -0.42261
C         16.01622        11.99968        -0.42045
C         14.73092        12.73832        -0.45621
C         16.04078        14.89009        -0.07823
C         14.73775        14.22558        -0.22270
C         16.02866        16.30619         0.05992
C         14.79960        16.99076         0.32994
C         15.91651        18.99656        -0.25714
C         14.77946        18.39079         0.31064
C         15.99955        21.11237         0.32062
C         14.85853        21.43954         0.99857
C         16.59993        23.81228         0.89066
C         14.77986        22.75181         1.60935
C         16.07013        25.05765         0.34783
C         14.86441        25.71414         0.97551
C         15.96753        27.95309         0.10167
C         14.87767        27.18932         0.98876
C         15.68697        29.36229        -0.23283
C         14.62500        30.01826         0.38229
C         18.44336         3.40929         0.24022
C         17.19947         4.09486         0.02198
C         18.37303         6.26735         0.57076
C         17.20086         5.49351         0.02968
C         18.42989         7.71160         0.11617
C         17.22596         8.38049        -0.15281
C         18.55101        10.58045        -0.37593
C         17.22852         9.81475        -0.49398
C         18.49026        12.04466        -0.21860
C         17.24074        12.72329        -0.32444
C         18.48870        14.89655        -0.14883
C         17.23993        14.17485        -0.19535
C         18.49426        16.32098        -0.20466
C         17.24659        17.02531        -0.12039
C         18.37825        19.25361        -0.76283
C         17.18311        18.42303        -0.31899
C         18.49519        20.69444        -0.19611
C         17.42095        21.56025         0.38674
C         18.46995        23.64645        -0.66267
C         17.53224        23.04271         0.25065
C         18.31023        25.01716        -1.02503
C         17.00307        25.70960        -0.67902
C         17.31984        27.86735        -1.90002
C         16.79730        27.18397        -0.83195
C         17.40657        29.30249        -1.97401
C         16.53603        30.02981        -1.17565
C         19.63515         4.10356         0.37903
C         20.86856         6.25286         0.46770
C         19.67030         5.51747         0.42231
C         20.86905         7.64209         0.41381
C         19.67817         8.40449         0.20141
C         20.86565        10.60173         0.42212
C         19.73446         9.83749         0.08636
C         20.86863        11.99230         0.32257
C         19.70293        12.73896         0.01813
C         20.91863        14.93959        -0.10028
C         19.72385        14.19368        -0.06783
C         20.91483        16.32528        -0.25159
C         19.71271        17.05981        -0.31880
C         20.84399        19.25959        -0.63725
C         19.69711        18.51282        -0.50924
C         20.82826        20.67662        -0.89693
C         19.69519        21.43336        -0.72546
C         20.67096        23.53758        -1.67503
C         19.61940        22.86983        -1.02105
C         20.55268        24.88196        -2.01457
C         19.37917        25.61658        -1.75437
C         20.11090        27.97840        -2.47562
C         19.23274        26.94044        -2.37083
C         19.70588        29.29478        -2.93906
C         18.48902        29.89025        -2.74946
O         12.44186         4.57504         1.15949
O         15.99211        23.30393         2.03733
O         12.69023        21.15083        -0.31822
O         11.78954        27.56065         2.91890
O         12.63669         8.11693        -1.63996
O         16.13505        27.71269         1.52184
O         18.33987        20.83172         1.26031
O          0.76463        15.52148         0.69718
O          7.34669         4.47454        -0.93174
O         15.85054        24.91784        -1.11999
O          2.98216        16.78001         1.13890
O         15.38547         5.77443        -1.59659
O          2.16453        27.82648        -1.84702
O         17.94634        27.13930        -2.91946
O          9.49374        22.09655         2.78486
O         18.03210        10.12305        -1.67756
O          2.99822        22.09284        -2.44811
O         10.73320        12.26865         2.02018
O          7.81676        18.60048         2.27839
O         14.57778        13.66387        -1.59317
O          4.49644         7.95762        -1.39290
O         11.53255        20.21362         2.98060
O          8.59028        25.35435        -0.72102
O          7.70630        12.30445         2.03131
O          1.56693         8.12013         1.02854
O          5.76335        16.73960        -1.39820
O          5.67393        20.01204         1.78939
O         11.86780        23.06288         2.86320
O         15.78107        20.27812        -0.78102
O          5.24214        13.39602        -1.59627
O         18.26692        19.42976        -2.20099
H         18.20931        18.54397        -2.61531
O          5.68192         7.60774         2.02844
H          6.46919         7.32093         2.53681
O         13.02615        10.60997        -1.93159
H         13.71505        11.09329        -2.43447
O          9.90430         5.24094        -1.58886
H          9.05787         4.82436        -1.87612
O          1.11896        23.72406        -2.78607
H          1.57348        22.96693        -3.22682
O         12.81292         9.69454         1.62237
H         12.45407        10.44999         2.13728
O         13.91293        19.05046         2.41847
H         13.09025        19.42122         2.87320
O          9.86071        31.35166         0.87113
H          9.92615        31.16644        -0.08783
O          4.72824        20.33997        -2.08243
H          4.48064        21.07064        -2.70161
O         18.15041         6.35135         2.04092
H         18.22406         5.43880         2.39496
H          1.16180         2.22792         0.00942
H         -0.95509         3.44123        -0.48026
H         -0.98371         5.91197        -0.66165
H         -0.96379         7.90896        -1.13735
H         -0.83697        10.29599        -1.42485
H         -0.78542        12.21824        -1.63040
H         -0.86629        14.63358        -1.39196
H         -0.93767        16.70979        -1.15424
H         -0.71905        19.09334        -1.52900
H         -0.65387        20.94201        -0.54377
H         -0.63627        23.34843        -0.51144
H         -0.69425        25.23209        -0.93543
H         -0.78702        27.61120        -0.35964
H          0.43464        29.81246         0.12722
H          3.56234         2.26235         0.37003
H          2.56017        30.97020         0.59604
H          5.83865         2.25517         1.07436
H          4.96684        31.01177         0.75943
H          8.63173         2.32436         1.31418
H          7.40070        31.03668         1.12595
H         10.75155         1.96277         0.14755
H          9.71024        30.35860         2.66099
H         13.56741         2.18368        -0.89922
H         12.30414        31.10426         1.08563
H         16.05228         2.24442        -0.13067
H         14.46393        31.08356         0.15744
H         18.45167         2.31002         0.22029
H         16.51030        31.12821        -1.22878
H         20.58448         3.54894         0.42498
H         21.82703         5.71404         0.51110
H         21.83655         8.16131         0.44785
H         21.78604        10.10423         0.75778
H         21.80130        12.52437         0.55396
H         21.88757        14.42426        -0.04586
H         21.88169        16.84283        -0.31448
H         21.83122        18.77826        -0.57682
H         21.77622        21.14137        -1.20497
H         21.58702        22.99846        -1.95177
H         21.36471        25.37108        -2.57141
H         21.16018        27.84339        -2.17460
H         20.50418        29.91555        -3.37773
H         18.37968        30.94651        -3.04152
