         618
 CSIRO Nanostructure Databank - Neutral Graphene Oxide Data Set
C         23.06494        69.76604        -0.91897
C         23.01196        71.15021        -0.99019
C         21.86209        71.77906        -1.53450
C         23.13842        73.79700        -1.95347
C         21.92818        73.09863        -1.98057
C         25.56398        65.55929        -0.47361
C         25.51088        66.95158        -0.37043
C         24.30771        67.65842        -0.65258
C         25.45195        69.79143        -0.26178
C         24.25607        69.04663        -0.59276
C         25.39336        71.21495        -0.19221
C         24.13003        72.03060        -0.43916
C         25.47263        74.05849        -1.47357
C         24.30295        73.30596        -1.30441
C         27.87361        61.27275        -0.12689
C         27.87540        62.68732         0.01067
C         26.74909        63.44743        -0.33983
C         27.92420        65.54962         0.29382
C         26.74391        64.84446        -0.16901
C         27.87415        66.97362         0.35289
C         26.69824        67.66919         0.02662
C         27.87307        69.84254         0.27831
C         26.65265        69.11156         0.05490
C         27.84064        71.26301         0.19281
C         26.55484        71.86648         0.18582
C         27.99265        74.03789        -1.08922
C         26.67771        73.83850        -0.73863
C         30.36165        56.97871         0.07800
C         30.30083        58.39110         0.16380
C         29.09264        59.08663        -0.05506
C         30.18709        61.16699         0.63896
C         29.01810        60.48685         0.12940
C         30.00922        62.50515         1.06398
C         29.01362        63.38097         0.59237
C         30.35421        65.58197         0.86028
C         29.09640        64.82116         0.66820
C         30.34972        67.00614         0.80298
C         29.03846        67.72756         0.95764
C         30.29002        69.93188         0.66824
C         29.09560        69.18237         0.55458
C         30.25163        71.35028         0.43716
C         29.05193        72.02954         0.14731
C         30.32875        74.04375        -0.48508
C         29.10533        73.40521        -0.38889
C         32.81738        52.72298         0.02616
C         32.81179        54.13109         0.12471
C         31.60334        54.85656         0.12317
C         32.81195        57.00570         0.37335
C         31.57252        56.26999         0.19580
C         32.75599        58.41742         0.47768
C         31.52636        59.13086         0.41411
C         32.71639        61.33523         0.48777
C         31.46333        60.53622         0.64627
C         32.82735        62.80172         0.62160
C         31.83888        63.56534         1.16876
C         32.84761        65.68641         0.70177
C         31.63919        64.96331         0.89147
C         32.80014        67.09476         0.78307
C         31.55244        67.76821         0.81232
C         32.78584        69.93799         0.81103
C         31.55690        69.23080         0.82409
C         32.78988        71.41673         0.89807
C         31.48344        72.14440         0.63410
C         32.72789        74.18023        -0.09816
C         31.54324        73.50166         0.04698
C         35.30438        48.45343         0.14511
C         35.30164        49.86540         0.06399
C         34.07174        50.58772        -0.07893
C         35.27832        52.74314        -0.20061
C         34.01977        51.98300        -0.07419
C         35.27261        54.18838         0.04097
C         34.07483        54.86324         0.19190
C         35.30101        56.98694         0.48651
C         34.05419        56.30367         0.37199
C         35.31705        58.43064         0.78206
C         33.99970        59.16259         0.74662
C         35.31056        61.36455         0.45974
C         34.03078        60.60581         0.38472
C         35.31296        62.74695         0.31501
C         34.02564        63.51062         0.02566
C         35.30958        65.60753         0.53084
C         34.07675        64.95937         0.48063
C         35.35745        67.06193         0.83710
C         34.06008        67.82948         0.94164
C         35.28866        69.97372         0.57564
C         34.05040        69.28845         0.76691
C         35.32371        71.40206         0.44762
C         34.08278        72.16043         0.70577
C         35.24529        74.27356        -0.35170
C         34.02982        73.62283         0.28718
C         37.76998        44.19929         0.33615
C         37.70699        45.59246         0.49472
C         36.51141        46.30998         0.42441
C         37.67937        48.47337         0.73384
C         36.48633        47.74700         0.43840
C         37.70931        49.87141         0.64344
C         36.53486        50.56070         0.24457
C         37.79584        52.75489         0.43635
C         36.60040        51.99810        -0.00769
C         37.79264        54.15316         0.40646
C         36.58700        54.90280        -0.14720
C         37.75485        57.03971         0.39865
C         36.52617        56.33256         0.31156
C         37.75904        58.47547         0.40995
C         36.55335        59.20007         0.53278
C         37.77914        61.32289         0.30515
C         36.54231        60.61627         0.47875
C         37.78962        62.75667         0.28377
C         36.55474        63.47763         0.32862
C         37.80184        65.63268         0.76603
C         36.53580        64.89576         0.40529
C         37.78868        67.09611         0.36135
C         36.57256        67.82530         0.47500
C         37.72465        69.97241         0.01179
C         36.50789        69.22922         0.38292
C         37.77933        71.44142         0.16318
C         36.52189        72.12038         0.20036
C         37.72637        74.18523        -0.29090
C         36.53253        73.53612        -0.07858
C         40.26452        40.11549        -0.87543
C         40.28209        41.40852        -0.32328
C         38.97645        41.99610         0.15724
C         40.21151        44.15088         0.53539
C         39.01328        43.50019         0.30880
C         40.15662        45.52721         1.16389
C         39.01256        46.35964         0.56906
C         40.15871        48.48425         1.21474
C         38.85529        47.71492         1.29178
C         40.16602        49.87964         1.17752
C         38.94062        50.61360         0.91494
C         40.16783        52.76405         1.31966
C         38.94775        52.01058         0.84418
C         40.22376        54.20906         0.89403
C         38.99953        54.89649         0.64102
C         40.21310        57.05597         0.50360
C         38.98605        56.32642         0.49999
C         40.21369        58.41563         0.20179
C         38.99177        59.17254         0.21580
C         40.21017        61.31210        -0.21765
C         38.98002        60.58389         0.15006
C         40.24152        62.77695        -0.04848
C         39.03517        63.47536         0.17543
C         40.22184        65.62849         0.17613
C         39.04687        64.91165         0.31531
C         40.24684        67.05953         0.23612
C         39.01252        67.75911         0.18787
C         40.28342        69.94258         0.10423
C         39.02955        69.20068        -0.10452
C         40.23880        71.36035         0.26335
C         39.00673        72.13134         0.15782
C         40.15130        74.35705        -0.37558
C         39.01220        73.56717        -0.09959
C         42.66265        36.04066        -2.25837
C         42.62382        37.41981        -1.96542
C         41.44878        38.08815        -1.60424
C         42.68847        40.21872        -1.24170
C         41.45061        39.46953        -1.26659
C         42.69977        41.54325        -0.68028
C         41.48758        42.10122        -0.15275
C         42.73814        44.19148         0.59408
C         41.47410        43.34515         0.72212
C         42.68262        45.66310         0.84954
C         41.44275        46.32983         1.12426
C         42.61813        48.47394         1.51373
C         41.38102        47.72715         1.26357
C         42.68395        49.92013         1.32581
C         41.43165        50.62783         1.17847
C         42.72722        52.72066         0.75281
C         41.44280        52.00209         1.08057
C         42.69878        54.19887         1.04169
C         41.45766        54.87978         0.93953
C         42.75422        57.01919         0.74092
C         41.44259        56.38133         1.07549
C         42.77947        58.38528         0.18062
C         41.49556        59.07717        -0.14599
C         42.82853        61.28641        -0.47713
C         41.48681        60.55645        -0.41397
C         42.71817        62.75994        -0.09337
C         41.50274        63.44146        -0.08709
C         42.68858        65.60107         0.44245
C         41.49952        64.95125        -0.24524
C         42.71176        67.10178         0.25420
C         41.49605        67.78778         0.22075
C         42.74015        69.94443         0.36731
C         41.49210        69.23784         0.24491
C         42.72911        71.38646         0.47333
C         41.44795        71.97487         0.62523
C         42.73955        74.29060        -0.39428
C         41.46228        74.01927         0.07993
C         45.20380        33.29411        -2.78725
C         43.95388        33.95872        -2.65079
C         45.14391        36.08468        -2.25344
C         43.87831        35.33949        -2.45741
C         45.13002        37.55478        -2.52385
C         43.83591        38.24521        -2.20742
C         45.13133        40.31290        -1.58675
C         43.88065        39.63625        -1.70888
C         45.13214        41.66839        -1.10491
C         43.91821        42.26339        -0.67482
C         45.05016        44.53875        -0.54387
C         43.94337        43.62951        -0.09326
C         45.04470        46.00016        -0.09148
C         43.88128        46.36286         0.80915
C         45.19051        48.47876         1.23347
C         43.95235        47.70158         1.35990
C         45.16516        49.85355         1.39491
C         43.92278        50.59390         1.36867
C         45.17562        52.75171         1.35496
C         43.97656        52.02576         1.24211
C         45.17534        54.19754         1.26903
C         43.92510        54.89606         1.13610
C         45.20721        57.03985         0.89600
C         43.93692        56.33749         0.95494
C         45.21966        58.45586         0.72995
C         44.00250        59.19127         0.39242
C         45.16081        61.35418         0.49320
C         43.96454        60.55264         0.21114
C         45.21737        62.79134         0.10656
C         43.96243        63.50943        -0.04377
C         45.16596        65.67979        -0.11237
C         43.94809        64.89810         0.01291
C         45.16711        67.12965         0.12803
C         43.96163        67.81414         0.24927
C         45.20385        69.98437         0.45597
C         43.96322        69.25853         0.34769
C         45.20544        71.47350         0.75556
C         43.90701        72.17538         0.40880
C         45.18155        74.19343        -0.21651
C         43.92720        73.55766         0.01207
C         46.41082        33.93725        -2.66011
C         47.70397        36.15010        -2.35024
C         46.46812        35.34824        -2.28352
C         47.68629        37.52576        -2.24673
C         46.44504        38.33280        -2.58480
C         47.58562        40.35702        -1.70613
C         46.37736        39.67249        -1.87546
C         47.56927        41.74871        -1.38087
C         46.37233        42.39352        -1.07870
C         47.60195        44.57245        -0.53542
C         46.34253        43.87205        -0.89425
C         47.59444        45.73505         0.20089
C         46.37569        46.46931         0.48572
C         47.66712        48.31799         1.65070
C         46.41264        47.72359         1.05540
C         47.70497        49.82693         1.50882
C         46.44047        50.60289         1.36763
C         47.63735        52.76149         1.68487
C         46.43678        52.07327         1.55208
C         47.65742        54.20318         1.48556
C         46.40604        54.90314         1.30084
C         47.66965        57.04116         1.09182
C         46.42499        56.33486         1.09616
C         47.68598        58.45388         0.93448
C         46.45050        59.13494         0.77527
C         47.72716        61.29102         0.49772
C         46.44001        60.60074         0.74651
C         47.70609        62.76401         0.37670
C         46.40304        63.46887         0.25131
C         47.62231        65.65932         0.62338
C         46.46934        64.91637         0.02270
C         47.61508        67.13896         0.67702
C         46.47045        67.86993        -0.02938
C         47.67863        70.00929         0.39502
C         46.40670        69.31501         0.38670
C         47.65104        71.45823         0.24268
C         46.46748        72.14817         0.26187
C         47.65226        74.23866        -0.36588
C         46.44083        73.56657        -0.06904
C         48.88151        38.27593        -2.06975
C         50.08160        40.38161        -1.74529
C         48.86944        39.67044        -1.88032
C         50.12533        41.78133        -1.53738
C         48.83781        42.50609        -1.49770
C         50.15372        44.48431        -0.57985
C         48.86388        43.95435        -0.99313
C         50.18948        45.65411         0.29456
C         48.87762        46.30009         0.70227
C         50.13886        48.37404         1.23896
C         48.93320        47.70918         1.10127
C         50.17695        49.69183         1.85083
C         48.93575        50.48442         2.06303
C         50.15899        52.79472         1.97317
C         48.89556        52.04522         2.09469
C         50.16582        54.12590         1.25825
C         48.87669        54.90447         1.41003
C         50.13100        57.06120         1.26922
C         48.91338        56.33217         1.25918
C         50.17322        58.47649         1.12014
C         48.93797        59.18893         0.97464
C         50.18923        61.32109         0.85624
C         48.97341        60.59011         0.85585
C         50.20462        62.75246         0.72114
C         48.90698        63.49167         0.96843
C         50.18242        65.67640         0.30773
C         48.91684        64.92752         0.48023
C         50.20235        67.14674         0.45594
C         48.93442        67.88543         0.90025
C         50.13747        69.93850         0.01762
C         48.86787        69.30392         0.40478
C         50.14532        71.42541        -0.15524
C         48.95341        72.21217         0.33165
C         50.14211        74.21219        -0.54686
C         48.92061        73.60585        -0.25743
C         51.32171        42.49777        -1.42288
C         52.59200        44.53185        -0.69612
C         51.36468        43.85306        -0.94834
C         52.63723        45.83538        -0.12901
C         51.42431        46.44406         0.35428
C         52.64548        48.44878         1.04796
C         51.40842        47.73472         0.90007
C         52.66680        49.73097         1.66193
C         51.41857        50.16401         2.23385
C         52.66927        52.80614         1.95128
C         51.38603        52.29736         2.36573
C         52.68719        54.19498         1.68530
C         51.38738        54.89830         1.71798
C         52.68738        57.05425         1.37180
C         51.39562        56.38691         1.61868
C         52.68633        58.49096         1.15868
C         51.41090        59.18702         1.09915
C         52.63942        61.33822         0.89338
C         51.42356        60.60747         0.95782
C         52.64451        62.72705         0.67458
C         51.40259        63.44272         0.60964
C         52.66130        65.61528         0.89882
C         51.49431        64.91034         0.22843
C         52.66863        67.14303         0.98977
C         51.40102        67.81774         0.47597
C         52.61425        69.94473         0.12716
C         51.42622        69.25189         0.25464
C         52.63943        71.37576        -0.18051
C         51.43994        72.12465        -0.19405
C         52.64645        74.15411        -0.75520
C         51.41513        73.51922        -0.46147
C         53.84699        46.54983         0.01976
C         55.06903        48.56545         0.78367
C         53.87033        47.84089         0.60497
C         55.07296        49.90669         1.23689
C         53.84463        50.55152         1.64033
C         55.09648        52.69259         1.69747
C         53.86627        51.99323         1.82309
C         55.13079        54.16611         1.81177
C         53.87942        54.91695         1.59600
C         55.12811        57.01798         0.88570
C         53.87363        56.32888         1.37854
C         55.19643        58.48739         1.30398
C         53.88039        59.18524         1.10768
C         55.13540        61.32193         0.55353
C         53.93945        60.67841         1.22167
C         55.09941        62.70105         0.31166
C         53.89588        63.41448         0.50503
C         55.20505        65.60654         0.49294
C         53.94565        64.87041         0.73152
C         55.12144        67.06306         0.29536
C         53.94576        67.76414         0.47346
C         55.17246        69.92524        -0.02926
C         53.90310        69.23719         0.35317
C         55.09815        71.24355        -0.77782
C         53.85041        72.04587        -0.49463
C         55.13285        74.04847        -1.30902
C         53.84159        73.42016        -0.80979
C         56.29562        50.62442         1.24214
C         57.57776        52.72365         1.33945
C         56.33942        52.01275         1.47113
C         57.67145        54.12525         1.34725
C         56.44586        54.90240         1.65224
C         57.59264        56.96863         0.96180
C         56.42526        56.31588         1.21424
C         57.54931        58.35094         0.40994
C         56.34157        59.17900         0.58355
C         57.56338        61.29451         0.04228
C         56.34039        60.55885         0.37301
C         57.59264        62.67405        -0.03056
C         56.30987        63.46533        -0.19224
C         57.66097        65.66355         0.11484
C         56.36664        64.90190         0.30011
C         57.37659        66.83836        -0.87380
C         56.31542        67.73335        -0.22271
C         57.67454        69.80631        -0.44357
C         56.35695        69.09258        -0.33636
C         57.57738        71.29980        -0.70329
C         56.39438        71.99401        -0.61786
C         57.65030        74.14486        -0.72862
C         56.32874        73.49079        -0.48150
C         58.85606        54.83549         1.07990
C         60.06564        56.97820         0.81973
C         58.88584        56.26837         0.98370
C         60.06880        58.48489         0.85360
C         58.84364        59.04979         0.14945
C         60.11960        61.24373        -0.18606
C         58.81193        60.52064        -0.14480
C         60.08631        62.71513        -0.14597
C         58.84720        63.40295        -0.15747
C         60.05516        65.48351        -0.59342
C         58.85386        64.81858        -0.27076
C         60.02706        66.90535        -1.05450
C         58.70593        67.60811        -1.24270
C         60.04205        69.82861        -1.11342
C         58.69538        69.14374        -1.36806
C         60.04507        71.24479        -1.02258
C         58.82714        71.98503        -0.86482
C         60.10216        74.09914        -0.90910
C         58.83145        73.42627        -0.86204
C         61.35499        59.18346         0.46819
C         62.58445        61.30111         0.10129
C         61.38104        60.52422         0.14921
C         62.57605        62.68726        -0.10550
C         61.30709        63.40745        -0.23901
C         62.55381        65.46396        -0.85294
C         61.27864        64.78509        -0.54356
C         62.54135        66.97666        -1.02764
C         61.27001        67.69631        -1.01562
C         62.53612        69.82785        -1.10927
C         61.27166        69.10897        -1.07729
C         62.50785        71.24650        -1.20581
C         61.29518        71.95546        -1.07359
C         62.55262        74.12110        -0.92304
C         61.29151        73.40081        -0.96694
C         63.78091        63.44109        -0.10225
C         64.97571        65.58821        -0.30064
C         63.80856        64.81614        -0.39776
C         65.00319        66.99846        -0.49018
C         63.78892        67.72436        -0.82515
C         65.13274        69.77084        -1.14383
C         63.77388        69.10743        -0.96152
C         65.07286        71.29726        -1.10093
C         63.76982        72.02016        -1.27845
C         65.04801        74.23865        -1.20248
C         63.74131        73.48152        -1.03161
C         66.16903        67.72058        -0.18344
C         67.31083        69.85283         0.15562
C         66.22477        69.13964        -0.29734
C         67.29320        71.32501         0.25196
C         66.12121        72.06541        -0.35310
C         67.35735        74.17050        -0.18435
C         66.23134        73.51635        -0.59045
C         68.51699        72.10594         0.46599
C         68.51055        73.45659         0.30779
O         59.48097        60.76967        -1.43095
O         49.37496        65.20059        -0.87860
O         66.12324        71.75306         1.08268
O         38.27694        69.56529        -1.30730
O         42.24309        58.37304        -1.20882
O         59.36371        67.04317        -2.39272
O         33.30740        60.90575        -0.84837
O         45.44714        44.45490        -1.94198
O         45.67511        61.17063         1.86677
O         58.22057        58.31805        -0.92382
O         45.77197        35.70823        -0.99635
O         54.75860        69.95318         1.36301
O         56.79257        66.32701        -2.01620
O         30.90940        62.96210         2.02489
O         51.24690        55.68896         2.93212
O         48.74181        51.21314         3.29364
O         26.47900        73.21896         0.50925
O         64.70911        71.79300        -2.42266
O         49.57127        45.38989         1.63534
O         48.73830        63.51951         2.36511
O         36.11248        52.35866        -1.36033
O         48.78834        43.61733        -2.43572
O         34.82273        67.40068         2.16021
O         49.97791        70.57657        -1.32555
O         32.00579        71.96806         1.99504
O         47.31452        50.26203         0.17966
O         34.24411        73.25565         1.67676
O         43.84637        43.59790         1.38642
O         43.33848        47.92241         2.66221
O         47.24716        66.34525         1.85744
O         62.62233        66.02652        -2.18953
O         51.45248        51.17251         3.19872
O         53.25574        65.04582         2.08601
O         44.26963        37.98801        -3.61644
O         46.02176        65.32794        -1.29591
O         40.67944        60.88862        -1.59004
O         55.89808        54.66124         2.98729
O         34.62558        58.83977         2.02761
O         41.41388        73.21839         1.24975
O         47.91235        61.94561        -0.82526
O         47.64235        48.02902         3.07442
H         47.84590        47.07842         3.20233
O         35.04876        74.35007        -1.77963
H         35.33922        73.50651        -2.18288
O         50.35742        53.90507        -0.17701
H         49.54952        53.47689        -0.53141
O         39.88730        45.24724         2.57426
H         40.44514        44.46763         2.82125
O         28.78150        67.74524         2.41259
H         27.95037        68.24593         2.55745
O         59.84466        58.87473         2.26527
H         60.53583        58.44098         2.80929
O         39.41424        46.63854        -0.79627
H         38.68054        47.11553        -1.23839
O         46.66719        38.67431        -3.98672
H         45.77536        38.82819        -4.38063
O         38.54445        47.52499         2.69468
H         39.08748        46.77054         3.03112
O         55.03300        70.91925        -2.21162
H         54.21247        70.40760        -2.37890
O         58.01623        66.29688         1.37665
H         58.01515        65.61363         2.07900
O         41.28446        56.60520         2.53826
H         40.66218        55.92473         2.87736
O         51.89569        64.93191        -1.17215
H         51.08411        64.76099        -1.70533
O         37.84943        65.63513         2.24025
H         37.04550        66.09909         2.56230
O         33.88844        63.53707        -1.43038
H         33.73553        62.59934        -1.70298
O         49.19179        72.37862         1.76710
H         48.37775        72.75026         2.16899
O         41.43239        42.89380         2.12240
H         42.37039        42.71807         2.37523
O         55.30627        73.74801        -2.69054
H         55.25192        72.76785        -2.80406
O         42.53639        65.36153         1.87237
H         43.30784        65.74666         2.33835
O         37.89920        41.58636        -0.69194
H         38.07592        41.91907        -1.59547
O         55.01071        57.04506        -0.56741
H         55.09130        56.13149        -0.91125
O         49.11241        68.00895         2.33819
H         48.66074        67.23554         2.75443
O         64.94941        75.56394        -0.68688
H         64.90012        75.51297         0.28953
O         65.53785        69.40839        -2.49649
H         65.09482        70.04595        -3.10431
O         58.33944        69.46254        -2.72502
H         58.62892        68.70752        -3.28670
O         58.26031        69.70564         0.89574
H         57.53803        69.81023         1.55226
O         54.17506        60.94554         2.68161
H         53.30611        60.87455         3.13474
O         36.80248        54.97550        -1.60091
H         36.69982        54.04996        -1.93766
O         45.30070        71.60025         2.22716
H         44.47878        71.22506         2.60958
O         56.14268        63.66244        -1.63184
H         56.40391        64.60772        -1.87415
O         40.04198        52.84018         2.79674
H         39.94624        51.92165         3.13073
O         55.96531        73.80268         0.90705
H         56.65800        73.43028         1.49253
O         42.81782        52.62324        -0.72761
H         43.67027        53.02838        -0.99695
O         52.62075        67.48850         2.40411
H         53.04909        66.74683         2.89325
O         23.66723        72.48565         0.86397
H         22.86461        73.02926         0.71871
O         46.81664        67.89974        -1.44554
H         46.66441        66.99009        -1.80546
O         41.65713        65.20102        -1.66968
H         40.93842        64.73606        -2.14659
O         44.80427        46.81935        -1.27300
H         45.17240        46.31664        -2.03972
O         43.22835        61.32362        -1.87710
H         42.39933        61.28417        -2.40912
O         55.52308        58.54158         2.71688
H         55.26855        59.44176         3.03995
H         23.19871        74.77373        -2.45663
H         25.46040        74.85215        -2.23890
H         28.23769        74.67212        -1.95473
H         30.37935        75.02942        -0.97134
H         32.72883        75.14112        -0.63441
H         35.32262        75.32912         0.01582
H         37.70664        75.25011        -0.56887
H         39.99747        75.30181        -0.92075
H         42.87056        75.07448        -1.15592
H         45.16606        75.23934        -0.56106
H         47.60575        75.28486        -0.70806
H         50.15341        75.26101        -0.88431
H         52.65789        75.22505        -1.00853
H         55.09470        75.16070        -1.20021
H         57.69670        75.24287        -0.66071
H         60.11969        75.19736        -0.84821
H         62.52858        75.21675        -0.82395
H         65.22306        74.33674        -2.31061
H         67.42352        75.26118        -0.30663
H         22.18205        69.18728        -1.23455
H         20.96263        71.17700        -1.73124
H         21.05081        73.55812        -2.45653
H         24.67067        65.00279        -0.79337
H         23.40794        67.08835        -0.92774
H         26.95506        60.78400        -0.48252
H         25.85770        62.95047        -0.74941
H         29.43007        56.41703        -0.08809
H         28.20094        58.53158        -0.38114
H         31.85805        52.18426         0.02668
H         30.65382        54.30939         0.02360
H         34.37015        47.89992        -0.02868
H         33.13128        50.01700        -0.06753
H         36.84297        43.62018         0.21013
H         35.56404        45.76911         0.27681
H         39.30644        39.57950        -0.93785
H         38.75295        41.56918         1.17443
H         41.72240        35.46900        -2.23549
H         40.50697        37.52521        -1.52507
H         45.19491        32.22436        -3.04165
H         43.02670        33.37706        -2.75224
H         47.34881        33.41358        -2.89415
H         48.66760        35.61882        -2.29305
H         49.84371        37.74185        -2.03362
H         51.02959        39.82979        -1.83154
H         52.27483        41.96402        -1.55249
H         53.53569        44.04660        -0.98412
H         54.78925        46.09855        -0.32402
H         56.02454        48.10372         0.49290
H         57.22232        50.09318         0.97885
H         58.48408        52.13390         1.13440
H         59.79408        54.27761         0.93723
H         61.02576        56.43968         0.79246
H         62.30459        58.66762         0.68561
H         63.54736        60.79316         0.26396
H         64.72698        62.92964         0.13117
H         65.90860        65.09209         0.00712
H         67.03510        67.18545         0.23507
H         68.15449        69.31446         0.61583
H         69.44286        71.57497         0.73092
H         69.42804        74.03153         0.49792
