         404
 CSIRO Nanostructure Databank - Neutral Graphene Oxide Data Set
C          1.37036         3.54256        -1.56992
C          0.20404         4.31114        -1.82055
C          1.07990         6.23369        -0.53807
C          0.09208         5.62372        -1.43532
C          1.14633         7.71579        -0.37074
C         -0.07539         8.49498        -0.58501
C          0.93809        10.42274         0.61370
C         -0.19915         9.75772        -0.13516
C          0.90391        11.97201         0.55781
C         -0.18033        12.70761        -0.13925
C          1.05424        14.85132        -0.14927
C         -0.10532        14.03480        -0.42206
C          1.09844        16.22125        -0.44636
C         -0.12985        16.98780        -0.52114
C          1.05940        19.13094        -0.88901
C         -0.14510        18.34165        -0.55546
C          1.05041        20.58901        -0.55451
C          0.13623        21.16244         0.35066
C          1.24154        23.34945         0.18246
C          0.17390        22.53331         0.61642
C          1.26529        24.79365         0.33719
C          0.13366        25.50793         0.87893
C          1.09897        27.69909         0.28859
C          0.07231        26.86567         0.92155
C          1.19434        29.15758         0.52378
C          0.06351        29.88292         1.03668
C          1.10396        32.05717         0.55322
C          0.04115        31.24197         1.13784
C          1.22186        33.50682         0.83171
C          0.08917        34.25088         1.21695
C          1.32892        36.33114         1.01841
C          0.13439        35.63544         1.30459
C          1.37952        37.76351         1.06481
C          3.75529         3.46854        -0.97077
C          2.49406         4.11137        -0.96470
C          3.61172         6.14094         0.10880
C          2.36130         5.42011        -0.29377
C          3.55377         7.65560         0.32290
C          2.28612         8.36349         0.02592
C          3.52045        10.50289         0.67128
C          2.28167         9.88818         0.02938
C          3.49869        12.00095         0.91447
C          2.18267        12.73292         0.77271
C          3.53539        14.94995         0.50908
C          2.21743        14.20790         0.48384
C          3.53421        16.30093        -0.09676
C          2.36912        16.92658        -0.50352
C          3.72043        19.03665        -1.01571
C          2.39117        18.34395        -0.99254
C          3.84483        20.41029        -1.44064
C          2.04148        21.44991        -1.05854
C          3.60970        23.38877        -0.63009
C          2.31141        22.73965        -0.54105
C          3.64532        24.81251        -0.33861
C          2.41312        25.49500        -0.03963
C          3.65033        27.72049        -0.10254
C          2.38777        26.96491        -0.14201
C          3.64164        29.11698         0.05992
C          2.38955        29.82115         0.24657
C          3.66140        32.01495         0.21352
C          2.38698        31.28871         0.14784
C          3.66689        33.42690         0.32286
C          2.45344        34.16708         0.58217
C          3.72204        36.29796         0.44526
C          2.50341        35.59438         0.68306
C          3.75005        37.72588         0.50223
C          2.54195        38.43724         0.80345
C          6.19222         3.46446        -0.64810
C          4.94431         4.13278        -0.60734
C          6.08836         6.27488        -0.14346
C          4.91024         5.52664        -0.22284
C          6.02179         7.70627         0.06298
C          4.82837         8.40295         0.24223
C          6.00824        10.55877         0.60184
C          4.82390         9.83233         0.43549
C          5.98387        12.01057         0.73241
C          4.77134        12.75103         0.74787
C          6.04646        14.82372         0.43402
C          4.80580        14.16016         0.58149
C          6.08562        16.30640         0.30243
C          4.79701        17.04863         0.02248
C          6.16376        19.03496        -0.71678
C          4.85917        18.38659        -0.57956
C          6.18361        20.53676        -0.89967
C          4.90221        21.24276        -1.04178
C          6.09250        23.34682        -0.50454
C          4.81590        22.66160        -0.82216
C          6.10923        24.83763        -0.33746
C          4.83740        25.56365        -0.36318
C          6.12097        27.67830        -0.14052
C          4.87946        26.99270        -0.19916
C          6.14244        29.11814         0.03511
C          4.88438        29.84755         0.11809
C          6.12207        32.00918         0.40578
C          4.86702        31.26006         0.23687
C          6.13948        33.45425         0.14370
C          4.91206        34.14860         0.20414
C          6.15663        36.26503        -0.00519
C          4.92620        35.57464         0.20111
C          6.16668        37.71408         0.06228
C          4.96612        38.40642         0.30476
C          8.63549         3.45825        -0.38925
C          7.39860         4.14891        -0.42439
C          8.57626         6.28179        -0.18218
C          7.37138         5.59461        -0.26821
C          8.57608         7.75819        -0.14979
C          7.25852         8.49712        -0.04788
C          8.50115        10.52550         0.66017
C          7.28566         9.88879         0.44129
C          8.46302        11.96144         1.01524
C          7.21718        12.70760         0.71342
C          8.57493        14.76165         0.34532
C          7.25569        14.09948         0.55068
C          8.61832        16.24434         0.02359
C          7.36028        16.99938         0.00739
C          8.66240        19.05742        -0.34587
C          7.40894        18.34960        -0.28273
C          8.68944        20.51170        -0.77088
C          7.40496        21.22527        -0.33181
C          8.59664        23.37420        -0.71163
C          7.41520        22.68400        -0.68238
C          8.57851        24.84805        -1.07098
C          7.36258        25.57832        -0.53510
C          8.65744        27.63298        -0.25904
C          7.35104        26.94165        -0.36692
C          8.65605        29.10947        -0.01802
C          7.36213        29.81016         0.04731
C          8.64098        32.00570        -0.10670
C          7.43366        31.25044         0.29878
C          8.60338        33.37890        -0.25771
C          7.36817        34.13250        -0.10001
C          8.57273        36.30334        -0.68721
C          7.35049        35.54428        -0.22351
C          8.61270        37.73183        -0.19587
C          7.40192        38.40584         0.01731
C         11.09651         3.43747        -0.17074
C          9.86157         4.12708        -0.20857
C         11.03269         6.28442        -0.04350
C          9.84150         5.58464        -0.13945
C         11.04490         7.75863        -0.02492
C          9.78987         8.47335         0.24548
C         11.03887        10.52516         0.75750
C          9.78119         9.84092         0.52008
C         11.02707        11.92273         1.21821
C          9.74960        12.71172         1.21453
C         11.03644        14.84334         0.73810
C          9.80880        14.13668         0.82345
C         11.04071        16.27449         0.45653
C          9.88418        16.98524         0.18998
C         11.07252        19.21220         0.11575
C          9.86541        18.42362        -0.02921
C         11.07333        20.60427         0.06506
C          9.88203        21.29871        -0.28381
C         11.10370        23.42909        -0.45156
C          9.85822        22.68462        -0.45511
C         11.09200        24.81803        -0.79371
C          9.89671        25.55814        -0.84514
C         11.10264        27.71763        -0.68771
C          9.90776        26.97241        -0.71339
C         11.13825        29.12798        -0.39844
C          9.90068        29.87072        -0.23661
C         11.12212        32.00121        -0.31732
C          9.88018        31.26280        -0.26703
C         11.12015        33.37079        -0.45525
C          9.83526        34.08305        -0.80950
C         11.05890        36.23504        -0.36633
C          9.87042        35.55822        -0.48953
C         11.07583        37.69126        -0.21542
C          9.84242        38.38689        -0.09485
C         13.57307         3.46361        -0.04974
C         12.33270         4.10541         0.01536
C         13.58827         6.32117         0.32634
C         12.28922         5.56767         0.23858
C         13.66319         7.76763        -0.13809
C         12.33694         8.51388         0.02869
C         13.52791        10.53923         0.80932
C         12.29473         9.87755         0.61471
C         13.53917        11.98853         0.71099
C         12.31156        12.71463         1.11019
C         13.53878        14.88401         1.12451
C         12.27013        14.17048         0.92157
C         13.55622        16.38474         0.99590
C         12.33261        16.99622         0.40620
C         13.57752        19.21371         0.68770
C         12.34419        18.48655         0.26514
C         13.56726        20.70997         0.67563
C         12.23398        21.45767         0.55838
C         13.57826        23.45521        -0.24396
C         12.32203        22.78666        -0.15576
C         13.63272        24.81402        -0.64409
C         12.37846        25.48803        -0.99280
C         13.63735        27.73080        -0.72037
C         12.36951        27.05195        -0.99749
C         13.61419        29.12495        -0.49196
C         12.36600        29.81213        -0.36350
C         13.63889        31.99587        -0.32388
C         12.38192        31.26168         0.05805
C         13.60484        33.41483        -0.39668
C         12.35503        34.11436        -0.40472
C         13.55153        36.25781        -0.40048
C         12.33643        35.52903        -0.39131
C         13.53899        37.69967        -0.29295
C         12.28776        38.37448        -0.16892
C         16.04781         3.50475        -0.27687
C         14.82584         4.16952        -0.02972
C         16.05410         6.31769         0.06847
C         14.85379         5.58644         0.13173
C         16.07534         7.75269         0.36189
C         14.87660         8.43117         0.46642
C         16.15313        10.54963         1.18066
C         14.81245         9.81003         0.93567
C         16.08589        12.04535         1.15013
C         14.87786        12.76949         0.77617
C         16.03095        14.93194         1.15840
C         14.83130        14.20290         1.07360
C         16.05683        16.36970         1.00734
C         14.84957        17.08374         0.81671
C         16.07972        19.19176         0.64491
C         14.86167        18.47326         0.62479
C         16.07939        20.62631         0.43519
C         14.84375        21.38209         0.33174
C         16.07118        23.40439        -0.41418
C         14.81628        22.71608        -0.06081
C         16.09282        24.87983        -0.46219
C         14.85862        25.55900        -0.64280
C         16.09396        27.71176        -0.67609
C         14.85649        26.99784        -0.71377
C         16.05803        29.14191        -0.67607
C         14.85637        29.84759        -0.48892
C         16.08212        32.02710        -0.56905
C         14.84917        31.29745        -0.45562
C         16.06803        33.45689        -0.56307
C         14.82445        34.14996        -0.50742
C         16.02379        36.30589        -0.62585
C         14.79940        35.57627        -0.51372
C         16.00036        37.75382        -0.47726
C         14.74201        38.40348        -0.28470
C         18.48444         3.56351        -0.73974
C         17.25497         4.22046        -0.39150
C         18.48651         6.38228        -0.33384
C         17.27000         5.63713        -0.19301
C         18.51996         7.79220        -0.07488
C         17.34091         8.46703         0.42268
C         18.66773        10.51296         0.62738
C         17.40556         9.82293         0.79768
C         18.92273        11.79840         1.17217
C         17.12956        12.83465         1.60443
C         18.54138        14.87762         1.17360
C         17.26393        14.22606         1.30880
C         18.54265        16.31679         1.08141
C         17.30171        17.05302         0.98598
C         18.54581        19.18900         0.81412
C         17.30465        18.47372         0.80474
C         18.54368        20.60692         0.62927
C         17.31447        21.28600         0.35365
C         18.58523        23.46882         0.13080
C         17.37757        22.67092        -0.13803
C         18.55357        24.88128        -0.03164
C         17.32118        25.57469        -0.36841
C         18.56885        27.70448        -0.41368
C         17.33525        27.00007        -0.52809
C         18.63872        29.12561        -0.77034
C         17.29287        29.89718        -0.90885
C         18.55074        32.05165        -0.71716
C         17.31446        31.34737        -0.70963
C         18.54563        33.48579        -0.71742
C         17.28815        34.18421        -0.67470
C         18.49506        36.33676        -0.97645
C         17.24408        35.60663        -0.74886
C         18.46173        37.90361        -0.78457
C         17.18019        38.48898        -0.41839
C         19.63082         4.28335        -0.94249
C         20.83185         6.45898        -1.03426
C         19.65765         5.70704        -0.76637
C         20.83861         7.82932        -0.88136
C         19.70081         8.52203        -0.38076
C         20.81010        10.79685        -0.50471
C         19.74045         9.94271        -0.11443
C         20.82195        12.15427        -0.21091
C         19.85666        12.71292         0.67244
C         20.96669        14.90627         0.91376
C         19.77505        14.15709         0.98237
C         20.97664        16.29204         0.99214
C         19.77298        17.03052         1.02684
C         20.96884        19.23640         0.99399
C         19.77472        18.48523         0.95846
C         20.96078        20.62175         0.88000
C         19.76496        21.33935         0.68115
C         20.91029        23.56703         0.81954
C         19.75496        22.79573         0.54938
C         20.89875        24.93950         0.66139
C         19.73952        25.62730         0.22980
C         20.91237        27.84640         0.26464
C         19.74826        27.06307         0.03297
C         20.93386        29.22299         0.07893
C         19.82296        29.91561        -0.43828
C         20.99871        32.09268        -0.59714
C         19.79823        31.34118        -0.61583
C         20.98907        33.47355        -0.66967
C         19.77825        34.20391        -0.71864
C         20.93262        36.42135        -0.66398
C         19.78219        35.65676        -0.78058
C         20.89466        37.83361        -0.46072
C         19.72218        38.53486        -0.40734
O          1.24166        12.51514         1.87679
O          8.68651        15.23857        -1.06447
O         14.21504        12.43940        -0.50738
O          5.35252        16.98818         1.39273
O          3.43060        11.04105         2.01962
O          1.59787        18.67173        -2.16933
O          2.68507        14.90597         1.69805
O         11.62124         8.43412        -1.25714
O          1.38504        27.40223        -1.11706
O         12.62553        17.61324        -0.89372
O          8.81982        28.15199         1.11927
O         18.17025        12.20073         2.28358
O         13.54301        19.96147         1.95394
O          7.93232         8.34682        -1.35037
O         13.40419        15.81880         2.31786
O          6.12050        23.92350         0.87584
O          8.92024        12.33901         2.37688
O          1.30369         5.47397         0.69676
O         11.83375        12.21300         2.41226
O          6.39542        19.64859        -2.04992
O         12.40873        26.26936        -2.22728
O         15.40126         9.97768         2.29168
O         16.83910        22.78995        -1.50539
O          2.79725        21.00100        -2.15191
O          1.42630        31.76964        -0.84407
O         12.86560         6.02869         1.54955
O          3.52890         6.71681         1.44743
O         18.46480        37.25880        -2.09792
O         18.04897        29.44459        -2.07070
O          6.88758        31.63865         1.61182
O          8.82506        20.56345        -2.21495
H          8.07133        20.05349        -2.60143
O          9.71590        33.99102        -2.27237
H          9.07129        34.69169        -2.54603
O         12.39723        31.22878         1.53927
H         11.56950        30.78602         1.82738
O          8.40519        36.40600        -2.16324
H          9.07516        37.04819        -2.48375
O          8.38712        24.88425        -2.53277
H          9.14534        24.41697        -2.94507
O         13.96886         7.68981        -1.55957
H         13.13109         7.89018        -2.04521
O          7.30782        21.13153         1.11484
H          6.94506        21.97841         1.45934
O          0.81137        10.01504         1.97628
H          1.25743        10.70443         2.52655
O          2.35458        10.33360        -1.35725
H          1.63125         9.89252        -1.85296
O         11.84710        21.84341         1.91581
H         12.15652        21.12057         2.51162
H          1.44663         2.53357        -1.99970
H         -0.59069         3.86440        -2.43516
H         -0.74972         6.22176        -1.81033
H         -0.94597         7.99802        -1.03516
H         -1.18224        10.24699        -0.17977
H         -1.08806        12.16379        -0.43444
H         -0.95534        14.50314        -0.93901
H         -1.07659        16.45500        -0.35514
H         -1.10140        18.87393        -0.44793
H         -0.66228        20.55198         0.79443
H         -0.62977        22.96668         1.22620
H         -0.68344        24.92997         1.33243
H         -0.75273        27.34815         1.46407
H         -0.79132        29.31266         1.42603
H         -0.77929        31.73204         1.68079
H         -0.86128        33.73428         1.40898
H         -0.76971        36.19973         1.57393
H          0.46083        38.31449         1.31351
H          3.81997         2.43758        -1.34955
H          2.57044        39.53588         0.84052
H          6.21227         2.38399        -0.85299
H          4.98521        39.50448         0.37237
H          8.63190         2.36289        -0.49389
H          7.41772        39.48479         0.23456
H         11.09664         2.34457        -0.30162
H          9.86124        39.46476         0.12768
H         13.59722         2.37483        -0.21097
H         12.28497        39.46959        -0.06147
H         16.05032         2.41533        -0.43162
H         14.72681        39.49740        -0.16870
H         18.48127         2.47235        -0.87700
H         17.14951        39.54074        -0.09599
H         20.55763         3.77517        -1.24671
H         21.73519         5.93788        -1.38281
H         21.75477         8.38996        -1.11188
H         21.62110        10.39083        -1.12459
H         21.60893        12.79069        -0.63957
H         21.92377        14.37664         0.80726
H         21.94378        16.81068         0.95958
H         21.93554        18.73190         1.12310
H         21.92151        21.15224         0.91946
H         21.83308        23.08181         1.16334
H         21.81968        25.49570         0.87864
H         21.82589        27.36641         0.63800
H         21.84951        29.77264         0.33722
H         21.96476        31.57160        -0.55566
H         21.94986        34.00468        -0.68571
H         21.91302        35.93202        -0.58503
H         21.84062        38.34297        -0.22722
H         19.70719        39.57550        -0.05171
