         290
 CSIRO Nanostructure Databank - Neutral Graphene Oxide Data Set
C          1.75337         3.70712        -2.41171
C          1.51912         4.49085        -1.32353
C          2.89529         2.84161        -2.48793
C          2.35652         4.38518        -0.12119
C          1.10062         6.40546         0.81658
C          1.19109         7.73879         0.74813
C          2.26756         5.46089         0.98732
C          2.51161         8.45821         0.59944
C          1.41662        10.70884         0.13638
C          1.59968        11.98403        -0.28850
C          2.45006         9.96119         0.88808
C          2.78632        12.75485        -0.01026
C          2.01020        14.66439        -1.41867
C          2.03707        16.02803        -1.69732
C          2.95550        14.02867        -0.54957
C          2.90775        16.90753        -1.01184
C          2.85195        18.32042        -1.09419
C          3.86621         2.83977        -1.51721
C          3.63526         3.56604        -0.23969
C          5.03702         1.97217        -1.58968
C          4.81912         4.01629         0.66824
C          3.60711         6.21997         1.18818
C          3.64552         7.71364         1.29546
C          4.84077         5.57818         0.54833
C          4.96707         8.44302         1.39495
C          3.69204        10.71060         1.28597
C          3.75746        12.23936         1.06196
C          4.98618         9.93378         1.46396
C          5.19418        12.75760         0.74417
C          4.21564        14.84672        -0.30438
C          3.83658        16.29125        -0.04598
C          5.12046        14.27736         0.76516
C          4.78111        17.18213         0.69625
C          3.78162        19.14036        -0.46541
C          4.86670        18.59516         0.29115
C          6.07499         2.25201        -0.77870
C          6.14287         3.37209         0.21970
C          7.16970         1.55384        -0.02480
C          7.27837         4.28443        -0.17500
C          6.18258         6.26032         0.78362
C          6.24629         7.72655         1.04534
C          7.29273         5.62195         0.02393
C          7.25909         8.58898         0.27670
C          6.28532        10.63378         1.25377
C          6.26857        12.07458         1.67961
C          7.41365         9.98644         0.84188
C          7.63343        12.73269         1.51814
C          5.82300        15.10384         1.56707
C          5.93623        16.60158         1.49900
C          7.75061        14.02722         1.92538
C          7.28991        17.10422         1.02294
C          6.08256        19.23045         0.47672
C          7.30184        18.47889         0.71448
C          8.53248         2.11616        -0.31839
C          8.45424         3.55958        -0.81578
C          9.68345         1.45824        -0.07606
C          9.73552         4.35555        -0.50704
C          8.30472         6.50894        -0.68810
C          8.54731         7.88014        -0.08326
C          9.59386         5.80004        -0.98347
C          9.76348         8.52228        -0.14110
C          8.70273        10.66319         0.75344
C          8.80260        11.99971         1.05519
C          9.92165         9.76322         0.73426
C         10.16110        12.67285         1.28119
C          8.83020        14.93641         1.47597
C          8.49110        16.22322         0.65884
C         10.06421        14.19683         1.06402
C          9.77097        17.02159         0.44058
C          8.52355        19.15873         0.47104
C          9.74141        18.45803         0.37075
C         10.99593         2.19795         0.05850
C         11.00466         3.47478        -0.83496
C         12.27685         1.41116        -0.10376
C         12.32316         4.18709        -0.63610
C         10.65177         6.58991        -1.34435
C         10.93628         7.89637        -0.77017
C         12.51427         5.40252        -1.19824
C         12.25693         8.38635        -0.63125
C         11.25970        10.49543         0.53334
C         11.28228        11.99888         0.48856
C         12.43547         9.76001        -0.02462
C         12.26969        12.68333        -0.15082
C         10.96722        14.87670         0.08497
C         10.96549        16.35681         0.15371
C         12.18221        14.15209        -0.39395
C         12.16694        17.04439        -0.19263
C         10.93911        19.16072         0.12324
C         12.14904        18.49192        -0.13922
C         13.48060         2.06458         0.09521
C         13.48417         3.59066         0.14496
C         14.68877         1.38806         0.42870
C         14.78945         4.17753        -0.37326
C         13.63459         6.26534        -0.93064
C         13.50453         7.64653        -0.83616
C         14.85503         5.49059        -0.77871
C         14.80233         8.40363        -0.56347
C         13.69000        10.61772        -0.34785
C         13.37693        12.00255        -0.95258
C         14.68830         9.83070        -1.20047
C         14.68817        12.81215        -0.92636
C         13.41681        14.93695        -0.64174
C         13.36322        16.34210        -0.53422
C         14.64264        14.20918        -0.85517
C         14.54402        17.18756        -1.00366
C         13.33607        19.23970        -0.26678
C         14.58528        18.59284        -0.43906
C         15.93868         2.06580         0.52713
C         16.01514         3.39299        -0.15664
C         17.09793         1.49549         1.03121
C         17.33067         4.12033        -0.15081
C         16.11701         6.19713        -1.02278
C         16.04706         7.69380        -1.07927
C         17.39101         5.53693        -0.60797
C         17.32338         8.45954        -1.02486
C         16.03511        10.63666        -1.38482
C         15.95748        12.12094        -0.99128
C         17.23857         9.93493        -0.65472
C         17.16864        12.80413        -0.83608
C         15.92094        14.96161        -0.89643
C         15.88440        16.45731        -0.86297
C         17.20052        14.23861        -0.64213
C         17.02862        17.12718        -0.15010
C         15.74947        19.29385        -0.23885
C         17.07934        18.65379         0.01559
C         18.46266         2.14839         0.87662
C         18.30815         3.68557         0.92474
C         19.54216         1.68439         1.82861
C         19.62608         4.43497         0.88804
C         18.44981         6.42150         0.00364
C         18.66169         7.71747        -0.81894
C         19.72725         5.66722         0.33119
C         19.74914         8.58163        -0.19059
C         18.56709        10.61484        -0.94702
C         18.48988        12.10339        -0.89354
C         19.79243         9.91219        -0.45780
C         19.69363        12.84259        -0.40392
C         18.37562        14.96173        -0.52645
C         18.33140        16.38383        -0.09154
C         19.71342        14.30629        -0.79542
C         19.59979        17.24848         0.06120
C         18.25697        19.23758        -0.72903
C         19.48525        18.62787        -0.59479
C         20.60545         2.44688         2.12327
C         20.65919         3.93976         1.88091
C         22.01604         4.52873         1.59955
C         21.04343         6.42473         0.23986
C         20.80736         7.89991         0.67676
C         22.16080         5.69729         0.96022
C         22.06325         8.72068         0.80705
C         21.12054        10.65303        -0.48489
C         21.00266        12.15006        -0.22456
C         22.16501         9.98479         0.38056
C         22.22002        12.98416        -0.42297
C         20.89530        15.06751        -0.12414
C         20.85201        16.55625        -0.54158
C         22.17952        14.32743        -0.43661
C         22.05799        17.39723        -0.21304
C         20.70494        19.31235        -0.84773
C         21.95175        18.73915        -0.48363
O         16.99253         3.25362        -1.27350
O         12.23952         9.84294         1.43844
O          5.04144         9.13358         2.68716
O          6.73212         2.35936         1.18461
O         16.65589         8.20188        -2.30062
O          6.63459         6.76509         2.07625
O         11.61607         5.92925        -2.12412
O         11.01697        14.40196        -1.28925
O          3.53920         6.86841         2.48048
O          2.47297         3.04089         0.45504
O         17.06442         5.67091        -2.01315
O         16.19215        15.79505        -2.12732
O          6.63066         8.86134        -0.99028
O          2.66568        10.36617         2.27314
O          3.53121        16.73178         1.31838
O         10.02104        14.97060         2.32043
O         20.15847        12.49576         0.93952
O         18.71690        11.38421        -2.17348
O         17.42251        16.46357         1.08121
O          6.65410        14.60702         2.59399
O         21.59241        10.55159        -1.85540
H         21.51685         9.61410        -2.13549
O         19.79310        17.51661         1.46133
H         19.99508        16.65039         1.89323
O         14.97684         8.43379         0.87530
H         14.12852         8.69384         1.29865
O         17.67659         4.02979         2.19413
H         17.53995         5.01125         2.18017
O         19.16333         7.36971        -2.12005
H         18.38233         7.08059        -2.65323
O          5.82443        12.11744         3.03558
H          5.81412        13.05720         3.32640
O          3.33783        12.87899         2.28291
H          2.81969        12.21007         2.79109
O         11.05782         2.55893         1.47880
H         10.22859         3.05448         1.69701
O          8.23340         3.50226        -2.23666
H          9.05290         3.12385        -2.63661
O          8.10482        15.64445        -0.63508
H          8.08461        16.35847        -1.30704
O         10.48781        12.43859         2.67582
H         10.28894        13.27528         3.16185
O         20.23373         4.51718         3.15964
H         19.29543         4.23681         3.28882
O         21.45155         6.50691        -1.14552
H         21.33721         5.62679        -1.55932
O         16.28133        10.65785        -2.80286
H         17.19868        11.00822        -2.95017
O         13.38256         3.97364         1.54416
H         12.58953         3.49047         1.89440
O          9.93373         9.22950         2.09033
H         10.14601         9.97100         2.69894
O         14.37176        10.92827         0.88823
H         13.69320        10.87563         1.60884
O          4.59232         5.87944        -0.87386
H          5.45255         5.91014        -1.35588
O         20.23863         7.84111         2.02419
H         20.20365         8.75482         2.37949
O         14.29566        17.40855        -2.41855
H         14.74068        16.66820        -2.89841
O         20.70748        15.04740         1.31062
H         20.58111        14.09718         1.57211
O         17.10748        10.07847         0.76903
H         16.25709         9.65067         1.05705
O         20.68815        16.65917        -1.98906
H         21.57476        16.61584        -2.40424
O         17.87572         6.78008         1.29913
H         18.60567         7.21076         1.82482
O          7.68617         6.74540        -1.99576
H          7.18490         7.61968        -1.91328
O          9.71049         4.60164         0.93070
H         10.45759         5.19418         1.16248
O         12.89353        11.93507        -2.30000
H         13.33730        11.16894        -2.74687
O         17.35291        18.96989         1.40984
H         18.12162        18.40900         1.69332
O          4.56710         3.66890         2.02897
H          5.13227         2.89606         2.25404
O          5.77705        17.12221         2.84733
H          4.84134        16.96535         3.10247
O         14.10732         9.60384        -2.49502
H         14.86418         9.52482        -3.12762
O         18.96098         1.74785        -0.42722
H         18.29031         2.02949        -1.09912
O          1.98725         4.78315         2.22333
H          2.73436         4.16091         2.39335
O          5.50426        12.39865        -0.62532
H          5.83064        11.46990        -0.66624
O         10.90680         3.04492        -2.21383
H         11.19185         3.80338        -2.77127
O         19.89282        14.23917        -2.22768
H         19.85647        15.15962        -2.58213
O          4.95439        14.89123        -1.55580
H          5.33365        13.98853        -1.68511
O          2.88637         8.40731        -0.81525
H          3.28187         7.52445        -1.01284
H          1.09323         3.77604        -3.28827
H          0.71344         5.24048        -1.33863
H          3.04162         2.24127        -3.39768
H          0.10571         5.94178         0.90702
H          0.26720         8.33661         0.71691
H          0.50278        10.17514        -0.16284
H          0.81044        12.44129        -0.90257
H          1.20132        14.07097        -1.86916
H          1.29178        16.44758        -2.38926
H          2.08830        18.77999        -1.73931
H          5.01455         1.08237        -2.23682
H          3.75772        20.22449        -0.65022
H          7.12328         0.45398         0.14592
H          6.19376        20.28229         0.17035
H          9.64884         0.41286         0.27441
H          8.51245        20.24557         0.30883
H         12.24108         0.31057        -0.13906
H         10.92259        20.26034         0.11970
H         14.64597         0.31304         0.66602
H         13.30962        20.32372        -0.07760
H         17.05213         0.47515         1.44535
H         15.66943        20.35212         0.05860
H         19.52564         0.62566         2.13318
H         18.19176        20.26043        -1.13126
H         21.40942         2.03090         2.75184
H         22.89637         4.02714         2.03180
H         23.17313         6.10596         0.81017
H         22.88455         8.27662         1.39121
H         23.09808        10.54280         0.55798
H         23.16147        12.45886        -0.64257
H         23.10238        14.89957        -0.61985
H         23.00773        16.94635         0.10687
H         20.66706        20.35874        -1.18445
H         22.83542        19.39066        -0.41255
