         621
 CSIRO Nanostructure Databank - Neutral Graphene Oxide Data Set
C          6.74779        32.39985        -2.24188
C          6.57073        33.62213        -1.69652
C          9.42984        28.29676        -2.76695
C          9.28600        29.55334        -2.24194
C          8.06145        30.30501        -2.42870
C          9.00379        32.20337        -1.19737
C          7.91652        31.57762        -1.94059
C          8.85148        33.48096        -0.71431
C          7.48283        34.10859        -0.59886
C          8.54517        36.25127         0.20408
C          7.48346        35.59941        -0.35945
C          8.51642        37.61685         0.64884
C         11.63347        23.87520        -2.35036
C         11.68881        25.30060        -2.25919
C         10.62389        26.08558        -2.69339
C         11.70269        28.10924        -1.70655
C         10.74479        27.57860        -2.74366
C         11.56834        29.42017        -1.20857
C         10.37613        30.17473        -1.49683
C         11.28738        32.03293        -0.17709
C         10.24598        31.46919        -0.99884
C         11.14694        33.34078         0.32224
C         10.01933        34.16868        -0.14806
C         10.77376        36.02755         1.38696
C          9.87368        35.59066         0.30615
C         10.63720        37.39302         2.06516
C          9.56119        38.20757         1.35369
C         10.79910        40.30316         1.67538
C          9.59776        39.61861         1.42853
C         10.81759        41.72097         1.56504
C         13.62825        19.43384        -1.71298
C         13.65948        20.84504        -1.53826
C         12.62299        21.65105        -2.00178
C         13.86995        23.68186        -1.34827
C         12.68604        23.07210        -1.90453
C         13.94474        25.10524        -1.24065
C         12.86101        25.91608        -1.67989
C         13.90091        27.91525        -0.64419
C         12.83509        27.32645        -1.36840
C         13.76976        29.21967        -0.11739
C         12.58762        29.97569        -0.36949
C         13.49143        31.88677         0.97596
C         12.45647        31.29091         0.17491
C         13.32716        33.20890         1.51679
C         12.07679        33.87125         1.23753
C         13.36140        36.09975         2.62279
C         11.65461        35.10211         1.86994
C         13.26392        37.48088         2.42346
C         11.99125        38.15912         2.17560
C         13.28343        40.27427         1.90073
C         12.00059        39.53073         1.95762
C         13.27211        41.75384         1.72966
C         11.99261        42.48898         1.62661
C         13.22260        44.65134         1.55468
C         12.02101        43.88707         1.49487
C         13.24975        46.00207         1.23307
C         15.58022        15.04918        -1.56192
C         15.68966        16.36549        -1.07210
C         14.66507        17.24753        -1.51073
C         15.68201        19.17574        -0.28094
C         14.64895        18.61429        -1.22755
C         15.89918        20.65485        -0.48443
C         14.84781        21.44809        -0.95676
C         16.12019        23.47466        -0.34036
C         14.94785        22.87526        -0.89859
C         16.17387        24.90380        -0.20717
C         15.10253        25.69458        -0.65555
C         16.14946        27.66358         0.43661
C         15.22189        27.19597        -0.63778
C         15.91368        28.94540         1.08963
C         14.78558        29.79917         0.71579
C         15.84403        31.72606         1.84622
C         14.69690        31.11357         1.21320
C         15.74981        33.12488         2.41654
C         14.47254        33.90573         2.09079
C         15.77565        36.03521         2.53856
C         14.50862        35.28345         2.37024
C         15.73608        37.51235         2.40649
C         14.54239        38.18539         2.36137
C         15.78920        40.40366         2.17335
C         14.50987        39.68016         2.55903
C         15.77619        41.77780         2.04243
C         14.49361        42.50657         2.13985
C         15.77473        44.68807         1.84310
C         14.47715        43.98868         2.00376
C         15.71819        46.20023         1.88832
C         14.43776        46.80605         1.32318
C         15.65494        49.00314         1.15882
C         14.42887        48.13367         0.98120
C         15.63252        50.29006         0.37963
C         18.07736        10.80437        -2.06762
C         18.04319        12.11077        -1.52485
C         16.86523        12.88249        -1.88567
C         18.11846        14.77239        -0.16085
C         16.42009        13.97208        -1.16990
C         18.07255        16.18026        -0.16806
C         16.86642        16.95318        -0.39617
C         18.16377        19.00273         0.18960
C         16.94788        18.34509        -0.22130
C         18.20326        20.41349         0.34233
C         17.10606        21.24982        -0.02624
C         18.43097        23.29689         0.56248
C         17.21659        22.67422         0.06902
C         18.47357        24.73571         0.73295
C         17.33285        25.50496         0.39806
C         18.43791        27.49504         1.35070
C         17.29168        26.89814         0.74492
C         18.43299        28.95664         1.50878
C         17.12946        29.63099         1.72090
C         18.31428        31.72498         2.37278
C         17.07483        31.07985         1.93427
C         18.29383        33.15254         2.56673
C         17.06052        33.87062         2.04058
C         18.35534        36.03345         2.46040
C         17.06051        35.30392         2.49102
C         18.31409        37.45307         2.02564
C         17.00963        38.21133         2.07908
C         18.25199        40.41930         2.15274
C         17.03104        39.69221         2.10948
C         18.27576        41.82798         2.01835
C         17.00248        42.50794         1.55880
C         18.23617        44.74082         1.65742
C         16.96084        44.01491         1.75255
C         18.21837        46.09895         1.41331
C         16.92435        46.77260         1.17759
C         18.17095        48.93672         0.57775
C         16.89873        48.20297         0.79034
C         18.09389        50.26026         0.16884
C         16.79977        50.90184        -0.04811
C         17.88206        52.73596        -1.33182
C         16.74783        52.15873        -0.74893
C         17.85068        53.94338        -2.05577
C         20.51574         6.96488        -3.97597
C         20.47071         8.20175        -3.29259
C         19.25905         8.84757        -2.95378
C         20.51293        10.65504        -1.82118
C         19.26967        10.05736        -2.23683
C         20.42242        11.73825        -0.75138
C         19.20404        12.64439        -0.87927
C         20.53130        14.64160        -0.12542
C         19.29596        13.97955        -0.36450
C         20.50530        16.04598         0.08458
C         19.31559        16.83481         0.05732
C         20.62958        18.82396         0.68868
C         19.38229        18.23288         0.31353
C         20.60064        20.19587         1.22715
C         19.37412        21.04961         0.96975
C         20.79819        23.14021         1.27544
C         19.52850        22.52246         0.94493
C         20.84859        24.59427         1.41919
C         19.63529        25.35855         1.27196
C         20.78580        27.43093         2.11894
C         19.62969        26.77157         1.56659
C         20.84263        28.82915         2.34056
C         19.67260        29.66186         1.97241
C         20.71433        31.65766         3.06841
C         19.50826        31.02060         2.52326
C         20.68480        33.17625         3.28570
C         19.41631        33.86838         2.94576
C         20.67645        35.94510         3.53506
C         19.44325        35.32552         2.92398
C         20.78961        37.63626         1.79599
C         19.57472        38.23653         2.05469
C         20.81867        40.44265         2.24323
C         19.50815        39.66991         2.40796
C         20.72449        41.87370         1.93354
C         19.51018        42.56116         1.93806
C         20.68922        44.73360         1.61749
C         19.50395        44.02615         1.73862
C         20.76455        46.20385         1.50825
C         19.43344        46.92920         1.37583
C         20.64212        48.88443         0.36580
C         19.41706        48.26925         0.75821
C         20.60643        50.21164        -0.14913
C         19.35047        51.05457        -0.02948
C         20.41359        52.68022        -1.70127
C         19.17529        52.01933        -1.20266
C         20.32510        54.03333        -2.27924
C         19.02982        54.59991        -2.53184
C         20.14057        56.51943        -3.60947
C         18.96482        55.84250        -3.19142
C         20.07007        57.71052        -4.36794
C         22.89255         4.71037        -5.73341
C         21.71288         5.21301        -5.20384
C         22.98968         6.98927        -4.03517
C         21.73251         6.38563        -4.39662
C         22.93198         8.18312        -3.25410
C         21.70475         8.85369        -2.97012
C         22.98950        10.91137        -2.23518
C         21.71003        10.09833        -2.25719
C         23.03760        11.95270        -1.13774
C         21.77621        12.45412        -0.51139
C         23.02980        14.65970        -0.39952
C         21.82214        13.85833         0.11403
C         22.83518        16.00797        -0.43010
C         21.74157        16.75483         0.13323
C         23.16829        18.60241         1.17186
C         21.84731        18.11368         0.51610
C         23.14923        20.07048         1.63561
C         21.88288        20.88298         1.60733
C         23.24937        23.02954         1.60427
C         21.93755        22.36976         1.54770
C         23.31058        24.57964         1.71789
C         22.02582        25.25608         1.79204
C         23.24922        27.25922         2.89827
C         21.98172        26.60708         2.39365
C         23.20980        28.74847         3.32751
C         21.99771        29.49903         2.80086
C         23.21424        31.62383         3.00101
C         22.00869        30.92781         2.92463
C         23.23222        33.10136         3.24484
C         21.98171        33.92617         3.19704
C         23.23841        36.20297         3.24077
C         21.99117        35.29608         3.18681
C         23.28413        37.51283         2.33378
C         22.06777        38.27755         2.06618
C         23.26343        40.36927         1.57958
C         22.04551        39.67361         1.96513
C         23.25410        41.85788         1.42270
C         21.95728        42.57947         1.54485
C         23.28250        44.77651         1.43731
C         21.99229        44.05455         1.73193
C         23.20967        46.16423         0.92860
C         21.98340        46.84710         0.94467
C         23.08938        48.79672        -0.07141
C         21.90234        48.17622         0.43554
C         22.98657        50.08935        -0.66311
C         21.76670        50.79292        -0.69036
C         22.87872        52.85122        -1.77500
C         21.70749        52.27578        -1.02019
C         22.79438        54.11522        -2.30895
C         21.50241        54.74384        -2.55555
C         22.60905        56.67066        -3.69317
C         21.43308        55.98478        -3.26889
C         22.52425        57.80075        -4.52883
C         21.23131        58.33232        -4.86872
C         22.29670        59.99067        -6.31993
C         21.14825        59.45653        -5.73622
C         24.10875         5.35377        -5.48476
C         25.49297         7.11672        -4.54655
C         24.21061         6.47187        -4.62045
C         25.86364         7.98661        -3.51336
C         24.09955         8.72307        -2.63519
C         25.51913        10.63373        -2.01498
C         24.25116        10.06183        -2.25167
C         25.54554        11.92499        -1.27676
C         24.31435        12.73132        -1.09994
C         25.63596        14.78954        -0.61055
C         24.33246        14.06856        -0.75505
C         25.77767        16.20915        -0.23838
C         24.66859        17.11574        -0.27509
C         25.74004        18.80718         1.01653
C         24.51096        18.22938         0.52979
C         25.73569        20.09456         1.55024
C         24.47322        20.77996         1.85817
C         25.77327        23.04094         1.91689
C         24.49111        22.29342         1.99422
C         25.75002        24.46018         2.10020
C         24.56725        25.22068         2.17663
C         25.74677        27.29585         2.86806
C         24.57050        26.60613         2.61543
C         25.76370        28.72008         3.43876
C         24.50376        29.50457         3.08946
C         25.73134        31.62954         2.71291
C         24.46885        30.88078         2.97511
C         25.75698        33.12232         2.73231
C         24.52667        33.86296         3.13212
C         25.79649        36.07737         2.66528
C         24.54531        35.38634         3.10675
C         25.79647        37.52584         2.29844
C         24.50481        38.18762         2.22635
C         25.77510        40.40832         1.98224
C         24.54781        39.59094         1.73639
C         25.76729        41.89557         1.71076
C         24.51473        42.62841         1.48370
C         25.74516        44.70403         0.88243
C         24.53036        43.98789         1.23857
C         25.66321        46.06826         0.53242
C         24.40776        46.78562         0.45905
C         25.56288        48.78778        -0.51401
C         24.35388        48.11407        -0.03943
C         25.46985        50.02779        -1.15981
C         24.14793        50.63081        -1.39812
C         25.33697        52.69125        -2.47016
C         24.08305        52.03110        -1.96972
C         25.36192        54.17714        -2.59789
C         24.03860        54.88873        -2.56815
C         25.20750        56.76702        -3.94845
C         23.93217        56.22806        -3.21808
C         24.96313        57.74621        -4.99200
C         23.70841        58.34890        -5.16107
C         23.55021        59.43729        -6.06862
C         26.82630         9.00974        -3.46007
C         27.95773        10.88882        -2.43612
C         26.75596        10.11747        -2.56146
C         28.06221        12.10031        -1.75442
C         26.85213        12.64021        -1.08932
C         28.14696        14.62916        -0.39951
C         26.81792        14.07473        -0.74119
C         28.24429        16.05090         0.11051
C         26.97258        16.78774         0.18397
C         28.22056        18.78565         0.78828
C         26.98648        18.13872         0.67175
C         28.30762        20.12381         1.38425
C         26.98270        20.81942         1.81404
C         28.24445        22.94320         1.89612
C         26.98601        22.29862         1.87158
C         28.27536        24.32441         2.41647
C         27.04216        25.16111         2.24537
C         28.32129        27.23195         3.14767
C         27.04407        26.62016         2.63256
C         28.34001        28.74211         3.25208
C         27.06013        29.44930         3.13242
C         28.30843        31.68342         2.90661
C         27.04740        30.87157         2.78766
C         28.23366        33.14141         2.52650
C         26.89956        33.78084         2.38059
C         28.12600        35.93464         1.62420
C         26.89163        35.23880         2.08840
C         28.25373        37.40821         1.84436
C         26.97900        38.16019         1.95889
C         28.25867        40.32078         1.37854
C         27.08657        39.64251         1.94885
C         28.14376        41.67469         0.81622
C         27.03005        42.57283         1.22795
C         28.10560        44.50823         0.11223
C         26.96412        43.95153         0.69522
C         28.15164        45.96220        -0.06619
C         26.89182        46.79604         0.19391
C         28.03121        48.71027        -0.93049
C         26.83771        48.13343        -0.42154
C         28.04860        50.13413        -1.28952
C         26.68638        50.79535        -1.45701
C         27.91208        52.76778        -2.56721
C         26.65503        52.00834        -2.32088
C         27.80516        54.04947        -3.13049
C         26.56482        54.76529        -3.25234
C         26.44749        55.97041        -3.91588
C         29.27962        12.81289        -1.66669
C         30.59021        14.70780        -0.77143
C         29.37417        14.04168        -0.98036
C         30.70847        16.05963        -0.31782
C         29.49536        16.80952        -0.07183
C         30.51224        19.06351         0.01200
C         29.41264        18.19527         0.21833
C         30.67297        20.34197         0.60432
C         29.49535        20.96123         1.14851
C         30.70631        23.09992         1.41946
C         29.46813        22.30045         1.55779
C         30.82378        24.40566         2.08755
C         29.58747        25.01072         2.62426
C         30.81790        27.21738         2.43946
C         29.61074        26.48141         2.95613
C         30.79599        28.70487         2.38044
C         29.64853        29.46277         2.99463
C         30.86895        31.64167         2.32006
C         29.63751        30.96769         2.87543
C         30.78500        33.08989         1.96113
C         29.49343        33.85274         2.11020
C         30.63901        35.89595         1.01095
C         29.38951        35.16505         1.38574
C         30.70222        37.36357         0.92359
C         29.51784        38.11238         1.41436
C         30.64437        40.17504         0.39209
C         29.40324        39.51963         0.94149
C         30.68870        41.69120         0.38178
C         29.32704        42.31348         0.13856
C         30.46086        44.33475        -0.68865
C         29.32041        43.77115        -0.12605
C         30.37123        45.66683        -1.31101
C         29.15219        46.50779        -1.01295
C         30.35429        48.52821        -1.83150
C         29.19746        47.95851        -1.21507
C         30.33334        49.90393        -2.20972
C         29.20377        50.71041        -2.01995
C         29.12935        52.05018        -2.48227
C         32.01572        16.56201        -0.02500
C         33.27654        18.71199         0.63000
C         32.31788        17.94081        -0.03166
C         33.20309        20.15034         0.75292
C         31.97280        20.91070         0.72257
C         33.27627        22.95945         1.44087
C         32.02702        22.34667         1.01766
C         33.28263        24.32049         1.94328
C         32.03260        25.08979         2.09386
C         33.30171        27.23644         2.02662
C         32.11931        26.51435         2.28400
C         33.23405        28.68557         1.85624
C         32.08177        29.38877         2.11426
C         33.02537        31.43155         0.86489
C         31.92881        30.79493         1.66101
C         32.96815        32.90773         0.58067
C         31.79657        33.69133         1.03230
C         33.16179        35.83014         0.61270
C         31.93544        35.17549         1.13718
C         33.08428        37.25282         0.24219
C         31.88365        37.98229         0.54150
C         33.01564        40.01505        -0.43698
C         31.99198        39.48875         0.55119
C         32.75742        41.30715        -1.18141
C         31.74018        42.23363        -0.56031
C         32.79061        44.18141        -1.64883
C         31.66127        43.55135        -0.95102
C         32.75051        45.55942        -1.96299
C         31.58958        46.35266        -1.78432
C         31.51394        47.72196        -2.07632
C         34.40752        20.83684         1.03430
C         35.73073        22.93066         1.33994
C         34.48404        22.23030         1.32827
C         35.79464        24.33292         1.41286
C         34.62232        25.08351         1.90593
C         35.72705        27.21492         1.38739
C         34.56532        26.55457         1.77595
C         35.77107        28.69621         1.35291
C         34.46999        29.44554         1.48108
C         35.38207        31.36056         0.10329
C         34.35522        30.76575         0.79191
C         35.26099        32.77018        -0.38873
C         34.20594        33.61768         0.18926
C         35.43053        35.68334        -0.41035
C         34.25983        34.98902         0.08833
C         35.40006        37.12099        -0.58320
C         34.22940        37.87478        -0.30598
C         35.25312        39.87159        -1.45719
C         34.13435        39.27607        -0.72241
C         35.17676        41.26153        -1.80607
C         34.02602        42.02252        -1.59545
C         33.95029        43.40594        -1.88794
C         36.94097        25.06934         1.06354
C         38.08861        27.17157         0.59591
C         36.93634        26.48692         1.03867
C         38.10920        28.56258         0.29326
C         36.93138        29.38213         0.68199
C         37.78275        31.23541        -0.93188
C         36.73112        30.72364         0.02863
C         37.75067        32.71684        -1.20193
C         36.49915        33.50271        -0.90443
C         37.88899        35.68561        -0.78957
C         36.57448        34.95424        -0.72761
C         37.70345        37.03110        -1.44785
C         36.53436        37.74918        -1.24443
C         36.39796        39.11807        -1.68433
C         39.19208        29.17022        -0.30416
C         40.31139        31.37539        -0.99116
C         39.10875        30.45870        -1.08552
C         40.26400        32.69898        -1.25267
C         39.02388        33.47481        -1.30671
C         39.04819        34.83376        -1.24887
O         23.77157        50.86102        -2.81485
O         26.46487        40.13882         3.21754
O         32.90122        35.65142         2.09747
O         31.24075        23.15149         0.06579
O         34.11574        24.52990         3.14607
O         27.86350        20.18029         2.78220
O         27.98994        46.69408         1.17513
O         22.65477        11.50522         0.20689
O         37.33457        30.60986         1.36867
O         16.20116        28.88585         2.54062
O         14.32996        43.34141         3.33836
O         24.45473        21.44702         3.17204
O         28.93765        24.28424         3.72855
O         12.24606        35.41106         3.10764
O         31.40843        32.66298         3.21038
O         29.04861        26.67455         4.28119
O         31.47032        18.68849        -0.90890
O         24.92922        54.86773        -1.39218
O         17.52729        37.63553         0.78456
O         28.31313        14.91313         1.03562
O         24.04533        33.40286         4.43986
O         29.23772        45.74993        -2.26453
O         20.57311        32.25098         4.40539
O         29.28715        29.10304         4.34576
O         22.79728        44.58447         2.82963
O         23.49732        23.86895         0.43628
O         30.40612        27.91850         1.19266
O         22.41200        26.49210         3.83558
O         19.30751        29.62555         0.52956
O         27.22832        26.20520         1.22270
O         10.49001        35.32047        -0.99719
O         23.68741        16.79699        -1.20518
O         13.54242        40.86461         0.58407
O         20.58069        36.83586         4.35752
O         26.31972        11.78500        -0.01711
O         29.80141        35.20063        -0.00382
O         29.09769        31.52431         4.10475
O         22.35075        20.23962         2.85024
O         29.02265        33.96976         3.46938
O         20.24572        40.10964         3.57526
O         35.42367        29.37567         2.60048
O         22.46253        42.20341         0.20796
O         19.75868        51.61218        -2.47498
O         27.08094        35.57142         0.66530
O         16.46113        35.56627         3.81359
O         31.83576        33.21811        -0.33409
O         16.94875        14.09462         0.13888
O         37.40365        31.72584        -2.24132
O         31.91242        30.75348         0.18554
O         29.73903        39.56129        -0.53192
O         23.96185        39.76056         0.41903
O         20.18787        46.91628         2.64534
O         24.73995        57.24544        -2.62152
O         28.33687        41.64349        -0.67499
O         25.55327        35.84413         4.08493
O         29.25016        37.84085         2.83308
O         35.42090        33.06131        -1.80513
O         26.37716        31.13688         1.47549
O         27.50864        51.02012        -0.26110
O         19.62202        20.42038         2.28944
O         21.76017        52.90411         0.26009
O         25.90111        51.93319        -3.57942
O         26.68805        42.55685         2.63902
O         25.10997         7.83158        -2.31467
O         16.67610        47.15593        -0.21922
O         20.15296        10.97795         0.46500
H         21.01991        10.62574         0.77436
O         23.20685        17.81726         2.39556
H         22.72126        18.32821         3.08533
O         21.92624        13.70194         1.54441
H         22.53015        12.94171         1.70373
O         15.74784        49.35524         2.56968
H         15.76926        48.51034         3.08532
O         16.99504        42.35752         0.08577
H         16.92208        41.39974        -0.11703
O          6.91648        33.55658         0.65493
H          6.75579        32.59991         0.50667
O         10.14835        37.19876         3.41574
H         10.78697        36.59977         3.86633
O         22.98088        11.68944        -3.47513
H         22.87024        11.06779        -4.22518
O         15.73028        32.95699         3.85419
H         15.86350        33.85016         4.25874
O         23.21094        36.76145         4.55889
H         24.13197        36.74929         4.91235
O         25.75381        28.58344         4.89702
H         24.81101        28.65150         5.20278
O         15.81708        46.61564         3.28500
H         15.20210        46.06216         3.81311
O         38.25643        35.98740         0.61878
H         37.58094        36.60633         0.97098
O         39.16621        29.96240        -2.46222
H         38.65565        30.60966        -3.00803
O         31.03502        42.14465         1.71987
H         31.77029        41.57865         2.05773
O         15.08969        19.06994         1.06344
H         14.94746        18.11717         1.24887
O         32.12419        40.86555        -2.43945
H         31.90470        41.66665        -2.96160
O         20.88346        36.46610         1.08971
H         20.00611        36.23047         0.72102
O         19.50206        51.87398         1.15978
H         20.37866        52.37555         1.05081
O         15.86564        27.57845        -1.92886
H         16.72883        27.11302        -1.97131
O         11.38253        27.86812        -4.05876
H         12.28519        27.48300        -4.03051
O         23.05382        28.73914         4.79005
H         22.48991        27.95434         5.00086
O         32.47596        39.86310         1.88671
H         33.24744        39.29644         2.10324
O         17.17746        33.91360         0.59712
H         17.23332        32.99269         0.26310
O         14.31124        39.88034         3.98755
H         15.08450        39.51470         4.46629
H          6.02447        32.00833        -2.97361
H          5.68644        34.22437        -1.95361
H          8.60127        27.83966        -3.32915
H          7.25558        29.84760        -3.02242
H          6.51207        36.11435        -0.42869
H          7.67736        38.25376         0.32456
H         10.73673        23.40479        -2.77955
H          9.74761        25.60548        -3.15458
H          8.72208        40.19048         1.08296
H          9.85632        42.23515         1.41117
H         12.80520        18.98578        -2.29048
H         11.73433        21.18655        -2.45364
H         11.07668        44.41987         1.30385
H         12.32555        46.48713         0.88254
H         14.81694        14.86126        -2.33263
H         13.85490        16.83104        -2.12898
H         13.49312        48.59657         0.62948
H         14.66598        50.78643         0.19926
H         17.15386        10.40442        -2.51184
H         16.35915        12.61368        -2.82452
H         15.77143        52.65500        -0.85648
H         16.88224        54.44556        -2.20457
H         19.57105         6.46130        -4.23023
H         18.30041         8.40873        -3.26545
H         17.98476        56.29211        -3.40909
H         19.08429        58.12616        -4.62476
H         22.87131         3.81984        -6.37670
H         20.74880         4.73916        -5.43631
H         22.20995        60.84696        -7.00321
H         20.16161        59.88205        -5.96846
H         25.02583         4.96893        -5.95353
H         26.20162         6.93027        -5.36756
H         25.78582        58.01645        -5.67158
H         24.44247        59.85450        -6.55682
H         27.66562         8.98636        -4.17114
H         28.86058        10.49283        -2.92561
H         28.72230        54.55317        -3.47237
H         27.31321        56.36582        -4.46947
H         30.18426        12.37811        -2.11793
H         31.51698        14.19238        -1.06595
H         31.21162        50.32421        -2.72216
H         30.04617        52.52134        -2.86855
H         32.79817        15.83392         0.23454
H         34.13085        18.20934         1.10646
H         33.65290        46.02882        -2.38411
H         32.40189        48.21988        -2.49518
H         35.34726        20.26526         1.00809
H         36.64303        22.37005         1.08935
H         36.07413        41.74605        -2.22222
H         34.83734        43.90406        -2.31002
H         37.85042        24.53636         0.75079
H         38.97826        26.57602         0.34200
H         38.56091        37.51065        -1.94334
H         37.25253        39.58230        -2.20024
H         40.07825        28.55312        -0.52215
H         41.29264        30.88670        -0.89185
H         41.20245        33.27437        -1.28781
H         40.02831        35.33730        -1.26788
