         630
 CSIRO Nanostructure Databank - Neutral Graphene Oxide Data Set
C         22.94367        27.45703         0.99171
C         22.93249        28.83643         0.87994
C         22.92802        31.76015         0.68484
C         22.91984        33.13400         0.58647
C         22.97707        36.08131         0.51024
C         22.99603        37.47572         0.38361
C         22.98018        40.37665        -0.16866
C         22.98501        41.67767        -0.54020
C         23.02159        44.70532        -0.78921
C         23.05918        46.04148        -0.88266
C         25.35818        24.62248         0.99465
C         24.21061        25.29936         1.19075
C         25.37044        27.47506         1.10019
C         24.16747        26.75834         1.10513
C         25.37773        28.88202         0.92876
C         24.13683        29.58413         0.83620
C         25.37650        31.73518         0.63926
C         24.14281        31.02392         0.71304
C         25.36512        33.15266         0.49435
C         24.12916        33.86991         0.47065
C         25.38045        35.97520        -0.14590
C         24.12560        35.30206         0.34623
C         25.41468        37.46614         0.08086
C         24.20162        38.19347         0.18606
C         25.42076        40.34414         0.01920
C         24.21450        39.64643         0.03749
C         25.50007        41.74228        -0.33388
C         24.24708        42.39508        -0.78644
C         25.54141        44.61530        -0.80302
C         24.25624        43.90133        -0.98429
C         25.56456        46.01058        -0.90786
C         24.31336        46.74205        -1.34784
C         25.51661        48.84563        -0.79929
C         24.34679        48.19580        -0.97492
C         27.94431        23.19416         0.75079
C         27.92787        24.59299         0.87215
C         26.63617        25.36692         0.64825
C         27.89224        27.48777         1.13336
C         26.63660        26.70976         1.39824
C         27.87585        28.85983         0.88157
C         26.62251        29.58820         0.82261
C         27.87073        31.68858         0.63734
C         26.62901        30.99786         0.68383
C         27.85447        33.15689         0.73563
C         26.60878        33.89740         0.48709
C         27.88902        35.99053         0.13652
C         26.64305        35.26871         0.27978
C         27.88326        37.44400         0.01042
C         26.66219        38.13542         0.06189
C         27.96748        40.33472         0.37170
C         26.66313        39.59493         0.30134
C         27.95499        41.86187         0.32615
C         26.69424        42.45984        -0.28800
C         27.97798        44.58624        -0.50325
C         26.73579        43.88058        -0.54817
C         28.01098        46.00158        -0.65806
C         26.79085        46.72496        -0.80054
C         28.02223        48.86304        -0.88958
C         26.79539        48.15980        -0.85015
C         28.07275        50.29518        -0.96734
C         30.35927        23.13061         0.98860
C         29.13317        22.47313         0.87974
C         30.37582        24.55163         1.02203
C         29.14771        25.27446         1.04246
C         30.37379        27.46939         0.84449
C         29.17647        26.75370         1.39422
C         30.34985        28.82803         0.60241
C         29.11228        29.57794         0.66831
C         30.35454        31.71097         0.29156
C         29.10803        30.98913         0.55709
C         30.36644        33.10964         0.15766
C         29.17007        33.90341         0.48450
C         30.28741        35.96855        -0.53242
C         29.09070        35.30436         0.08588
C         30.35263        37.44128        -0.23130
C         29.14346        38.16233        -0.04415
C         30.41235        40.27487        -0.19405
C         29.19385        39.58069         0.04206
C         30.43783        41.70402        -0.33701
C         29.21982        42.47130        -0.23769
C         30.52551        44.57352        -0.35128
C         29.21102        43.84550        -0.41409
C         30.48565        46.01723        -0.77571
C         29.26648        46.71778        -0.75501
C         30.50069        48.84997        -0.97518
C         29.26477        48.14466        -0.89538
C         30.51962        50.28723        -1.02529
C         29.25889        50.97240        -1.02611
C         32.82576        20.28740         0.61611
C         31.67175        20.96804         0.64414
C         32.89732        23.12102         0.86773
C         31.63915        22.35832         1.24319
C         32.84632        24.55287         0.77486
C         31.64294        25.24327         0.93171
C         32.72726        27.30465         0.03684
C         31.69404        26.75532         1.00802
C         32.75568        28.81756         0.11051
C         31.59616        29.53382         0.28358
C         32.75903        31.67941        -0.21340
C         31.58066        30.98608         0.11140
C         32.77548        33.09193        -0.33143
C         31.56085        33.82141        -0.16962
C         32.80135        35.93051        -0.37475
C         31.57816        35.23635        -0.29060
C         32.82691        37.36770        -0.37100
C         31.59669        38.10551        -0.29211
C         32.86316        40.21491        -0.52721
C         31.62715        39.53727        -0.32259
C         32.85352        41.60756        -0.80723
C         31.65068        42.33133        -0.73195
C         32.87999        44.52319        -1.38189
C         31.62045        43.78710        -1.03233
C         32.94389        45.98156        -1.11992
C         31.71903        46.69831        -0.97258
C         32.97445        48.82481        -1.03883
C         31.73210        48.13089        -1.00142
C         32.99068        50.25843        -1.09073
C         31.75128        50.98094        -1.07947
C         32.98012        53.10633        -1.15535
C         31.81701        52.42944        -1.04377
C         35.44499        18.75906         0.87859
C         35.40427        20.22484         1.02701
C         34.09231        20.96552         0.99834
C         35.36654        23.11716         0.63229
C         34.10604        22.43987         0.80286
C         35.36809        24.54444         0.53896
C         34.10390        25.27524         0.56808
C         35.29451        27.40869         0.24243
C         34.06016        26.62750         0.29326
C         35.27059        28.75649        -0.38602
C         33.97127        29.48942        -0.37324
C         35.15356        31.55143        -1.16925
C         34.09591        30.98513        -0.20479
C         35.18511        33.08028        -1.06612
C         33.99022        33.79694        -0.59013
C         35.29418        35.90793        -0.46381
C         34.02976        35.19955        -0.51009
C         35.30212        37.34061        -0.29999
C         34.07535        38.05826        -0.35965
C         35.34174        40.17688        -0.44826
C         34.10090        39.48535        -0.46342
C         35.38074        41.58107        -0.74948
C         34.13353        42.25425        -1.19785
C         35.44177        44.49703        -1.37107
C         34.15441        43.73943        -1.50724
C         35.42296        45.94753        -1.10999
C         34.18089        46.66229        -1.09544
C         35.43954        48.79654        -0.94989
C         34.20232        48.10015        -1.01955
C         35.44221        50.23542        -0.95421
C         34.22867        50.94509        -1.10470
C         35.50428        53.11660        -0.88833
C         34.28449        52.41526        -1.45684
C         35.51900        54.49195        -0.71782
C         37.88692        18.81415         0.70950
C         36.62263        18.10504         0.77443
C         37.84735        20.25488         0.56041
C         36.64310        20.96794         0.70385
C         37.80543        23.08619         0.18698
C         36.59463        22.39009         0.52460
C         37.79706        24.50764         0.06252
C         36.58677        25.21869         0.31100
C         37.81410        27.40573        -0.18299
C         36.61689        26.68489         0.28765
C         37.78896        28.80107        -0.38047
C         36.53483        29.53717        -0.48762
C         37.76377        31.57716        -1.09066
C         36.49452        30.85875        -0.86281
C         37.78355        33.09523        -1.15077
C         36.49623        33.85256        -1.06092
C         37.76856        35.83287        -0.02550
C         36.49801        35.21469        -0.53739
C         37.78032        37.33663        -0.14123
C         36.54881        38.03829        -0.19355
C         37.77528        40.17655         0.07841
C         36.56386        39.47130        -0.19770
C         37.68657        41.63065         0.07208
C         36.56849        42.27948        -0.57572
C         37.77483        44.50472        -0.33594
C         36.68273        43.71771        -0.91209
C         37.83427        45.90619        -0.51283
C         36.63529        46.62748        -0.86744
C         37.90370        48.73149        -0.66138
C         36.66205        48.06087        -0.81858
C         37.92210        50.19329        -0.80152
C         36.67397        50.94934        -0.80916
C         37.86163        53.03142        -0.10664
C         36.69515        52.36302        -0.63512
C         37.78342        54.43808         0.17614
C         36.64266        55.14578        -0.17575
C         40.39227        16.09726         1.21503
C         39.21317        16.69945         0.95252
C         40.35036        18.87678         0.64000
C         39.11213        18.14255         0.79294
C         40.28209        20.24299         0.21952
C         39.06939        20.94741         0.23592
C         40.20382        23.08113        -0.35727
C         39.03093        22.37459         0.00576
C         40.16997        24.47788        -0.57152
C         38.99649        25.21113        -0.29280
C         40.22222        27.36751        -0.52171
C         39.01181        26.66438        -0.35841
C         40.25013        28.77741        -0.55455
C         39.02352        29.50006        -0.56273
C         40.24976        31.62008        -0.85433
C         39.03470        30.90002        -0.79275
C         40.25858        33.06422        -0.87775
C         39.03755        33.79860        -0.82369
C         40.25521        35.89118        -0.47601
C         39.03285        35.16614        -0.51841
C         40.25621        37.30963        -0.24366
C         39.00783        38.03192        -0.06240
C         40.30536        40.08805         0.35078
C         39.01135        39.45177         0.17518
C         40.46506        41.35801         0.93753
C         38.60085        42.45748         0.73102
C         39.84108        44.62560         0.92994
C         38.73122        43.86457         0.48487
C         40.13261        45.90738         0.43006
C         39.02986        46.60943        -0.16284
C         40.30403        48.70496         0.06639
C         39.08767        48.02669        -0.31776
C         40.33223        50.11444         0.14560
C         39.20392        50.92831        -0.32599
C         40.20822        52.89833         0.75094
C         39.06223        52.30416         0.15344
C         40.10883        54.27841         1.27697
C         38.86605        55.09683         0.95620
C         40.13371        57.12574         1.56658
C         39.02617        56.55951         1.01987
C         42.90064        16.15000         1.22081
C         41.63292        16.90275         1.49624
C         42.83455        18.92301         0.52124
C         41.59557        18.25065         0.81750
C         42.82865        20.26930         0.08572
C         41.52695        20.89419        -0.21004
C         42.76863        23.16983        -0.39227
C         41.48382        22.35908        -0.54656
C         42.64720        24.35326        -1.35283
C         41.38865        25.16900        -1.06418
C         42.76298        27.28964        -0.50948
C         41.45562        26.64720        -0.89640
C         42.72724        28.78727        -0.66794
C         41.50076        29.48644        -0.67599
C         42.72340        31.62755        -0.76363
C         41.48855        30.91201        -0.76048
C         42.72812        33.05361        -0.83762
C         41.48584        33.77190        -0.81976
C         42.72216        35.90894        -0.74064
C         41.48535        35.19579        -0.70383
C         42.72192        37.32027        -0.56759
C         41.48722        38.00965        -0.30608
C         42.75000        40.12127        -0.07578
C         41.51445        39.41439        -0.03615
C         42.79123        41.51613         0.21500
C         41.64336        42.13654         0.78333
C         42.76549        44.35110         0.68886
C         41.71733        43.51667         1.11389
C         42.67870        45.80508         0.68157
C         41.44355        46.53352         0.56633
C         42.70435        48.66432         0.65577
C         41.47991        47.95633         0.42309
C         42.70749        50.07897         0.77520
C         41.48951        50.80116         0.59654
C         42.70655        52.98605         0.99410
C         41.42757        52.20847         0.82500
C         42.55551        54.20493         1.87628
C         41.32697        54.99353         1.68102
C         42.52358        57.02352         2.34585
C         41.30375        56.35104         1.93395
C         44.03260        16.78401         0.84550
C         45.28818        18.88347         0.27508
C         44.07194        18.20888         0.57895
C         45.28442        20.26964        -0.09185
C         44.04074        20.97106        -0.19097
C         45.24729        23.00299        -0.88197
C         44.04177        22.35419        -0.57195
C         45.24901        24.41949        -1.36034
C         43.94616        25.19557        -1.44682
C         45.19072        27.34514        -0.95810
C         43.99620        26.63961        -1.10357
C         45.17147        28.73127        -0.57745
C         43.95759        29.47704        -0.59498
C         45.16441        31.64497        -0.59581
C         43.95098        30.91938        -0.61854
C         45.17397        33.02754        -0.84208
C         43.95909        33.75883        -0.91638
C         45.17050        35.92749        -0.98621
C         43.96072        35.20655        -0.92519
C         45.18900        37.34045        -0.81512
C         43.95682        38.03757        -0.60419
C         45.19790        40.17264        -0.43126
C         43.97127        39.44571        -0.39124
C         45.20941        41.58642        -0.20358
C         43.99079        42.27203         0.10011
C         45.19545        44.42580         0.21631
C         43.97849        43.68404         0.30183
C         45.17887        45.83223         0.46021
C         43.92334        46.52146         0.62215
C         45.17328        48.65102         0.86857
C         43.93506        47.93925         0.73284
C         45.16918        50.05716         1.10342
C         43.93010        50.78232         1.08622
C         45.12992        52.85974         1.65185
C         43.92422        52.16431         1.32453
C         45.11479        54.24260         2.01991
C         43.81528        54.91489         2.30416
C         43.70628        56.37359         2.48943
C         47.72767        18.87578         0.12423
C         46.54682        18.21400         0.35580
C         47.76039        20.25810        -0.20995
C         46.51518        20.95910        -0.33671
C         47.75920        23.06812        -0.78560
C         46.50194        22.33919        -0.70187
C         47.76099        24.45074        -0.94669
C         46.53366        25.18367        -1.26800
C         47.75453        27.36188        -0.62779
C         46.51993        26.70086        -1.15126
C         47.70906        28.74028        -0.27090
C         46.41271        29.41231        -0.19991
C         47.70729        31.64650        -0.30031
C         46.40699        30.95666        -0.20913
C         47.72253        33.04830        -0.64507
C         46.46353        33.70134        -1.06491
C         47.70784        35.94777        -0.98919
C         46.44712        35.22151        -1.19945
C         47.68072        37.35625        -0.90824
C         46.42529        38.06228        -0.83036
C         47.65175        40.21488        -0.71934
C         46.42414        39.47609        -0.67008
C         47.63180        41.60803        -0.50749
C         46.42812        42.31148        -0.23474
C         47.63664        44.48337         0.01838
C         46.42838        43.74434        -0.01684
C         47.64949        45.86718         0.28375
C         46.40928        46.55314         0.49070
C         47.64646        48.67494         0.86831
C         46.41326        47.95943         0.75752
C         47.63822        50.06697         1.14740
C         46.39372        50.76107         1.27771
C         47.60192        52.87285         1.74683
C         46.37726        52.16303         1.56683
C         47.54824        54.24363         2.05494
C         46.32828        54.90521         2.21174
C         50.25465        20.27127        -0.27652
C         49.00744        20.94850        -0.38316
C         50.25842        23.04167        -0.65606
C         49.02001        22.35766        -0.61523
C         50.30620        24.50015        -0.86339
C         49.00195        25.24392        -0.98979
C         50.13214        27.25921         0.15433
C         48.95005        26.66318        -0.57905
C         50.12934        28.77081         0.13828
C         48.91779        29.46909        -0.01300
C         50.09762        31.69294         0.22140
C         48.87174        30.92781        -0.02864
C         50.11787        33.17058        -0.09810
C         48.89760        33.79527        -0.63796
C         50.16467        35.92221        -0.81108
C         48.92532        35.22211        -0.87551
C         50.15471        37.36115        -0.84154
C         48.91616        38.07565        -0.85831
C         50.13850        40.20451        -0.80834
C         48.90943        39.50363        -0.84690
C         50.15046        41.67158        -0.95364
C         48.85869        42.39828        -0.71453
C         50.12147        44.59364        -0.44903
C         48.94415        43.73810        -0.01907
C         50.14157        45.97211         0.07772
C         48.90392        46.60353         0.36403
C         50.12963        48.70894         0.74322
C         48.89663        47.99040         0.67578
C         50.11903        50.11082         1.05645
C         48.87633        50.78674         1.26814
C         50.09899        52.85516         1.68413
C         48.86487        52.17474         1.57660
C         51.45353        20.94503        -0.34012
C         52.74058        23.08705        -0.51979
C         51.49303        22.35614        -0.50423
C         52.74244        24.52228        -0.43300
C         51.52111        25.23760        -0.46527
C         52.67997        27.31259         0.02088
C         51.47636        26.62350        -0.18376
C         52.72005        28.72090         0.57455
C         51.37761        29.46944         0.51561
C         52.66055        31.70491         0.16651
C         51.39396        30.97030         0.41868
C         52.64639        33.10721        -0.07918
C         51.41537        33.83834        -0.30291
C         52.67956        35.89538        -0.75013
C         51.39704        35.18337        -0.65469
C         52.65465        37.39254        -0.71373
C         51.35907        38.10498        -0.67572
C         52.58417        40.24974        -0.11194
C         51.34906        39.50554        -0.60062
C         52.70401        41.68733        -0.55666
C         51.45540        42.41546        -0.87913
C         52.67824        44.58694        -0.32949
C         51.43248        43.90559        -0.73317
C         52.63463        45.96632        -0.04707
C         51.37158        46.66552         0.13811
C         52.60831        48.77037         0.57939
C         51.36830        48.04540         0.49904
C         52.60049        50.15593         0.88373
C         51.34376        50.83124         1.13643
C         51.29981        52.20591         1.46621
C         55.18106        23.12269        -0.45729
C         53.98934        22.42580        -0.54958
C         55.21211        24.53260        -0.29665
C         53.97030        25.23978        -0.28847
C         55.17416        27.38704         0.01660
C         53.93539        26.65488        -0.11192
C         55.17800        28.80871         0.10225
C         53.85281        29.50598        -0.12714
C         55.11013        31.69366         0.20694
C         53.87565        30.99345         0.16105
C         55.09803        33.10097         0.15734
C         53.89771        33.79209        -0.11596
C         55.12336        35.92455        -0.32899
C         53.93088        35.21283        -0.36324
C         55.13924        37.34491        -0.25090
C         53.83379        38.07210        -0.06361
C         55.07207        40.25596         0.08221
C         53.88293        39.53911        -0.53088
C         55.13146        41.71135         0.11549
C         53.93900        42.42574        -0.16173
C         55.12589        44.56483        -0.01846
C         53.90110        43.84940        -0.17179
C         55.10292        45.98979         0.04372
C         53.86457        46.68060         0.12846
C         55.07944        48.81637         0.40261
C         53.85292        48.09332         0.36597
C         55.03317        50.20649         0.67864
C         53.83779        50.84956         0.92494
C         57.70252        24.58372        -0.10093
C         56.44234        25.25479        -0.12410
C         57.63613        27.39618         0.20184
C         56.41312        26.67416         0.03090
C         57.62813        28.81625         0.35251
C         56.37110        29.52785         0.27973
C         57.57516        31.68609         0.45470
C         56.37701        30.97718         0.33559
C         57.61852        33.11914         0.38211
C         56.33632        33.90391         0.49397
C         57.64099        36.00721         0.08544
C         56.43272        35.18503        -0.32797
C         57.60543        37.42117         0.16929
C         56.28214        38.05195         0.10956
C         57.89434        40.45428         0.55553
C         56.06861        39.42035         0.53952
C         57.68787        41.79388         0.14859
C         56.38678        42.43824         0.17406
C         57.59301        44.58464        -0.17116
C         56.36488        43.84989         0.00602
C         57.56568        46.01389        -0.15468
C         56.33673        46.71958         0.03998
C         57.56645        48.83286         0.03559
C         56.33130        48.13259         0.16161
C         58.87598        25.27040         0.08156
C         60.07417        27.39797         0.46511
C         58.87477        26.68955         0.24450
C         60.05236        28.77748         0.62883
C         58.85091        29.50028         0.55281
C         60.05881        31.70734         0.21256
C         58.86978        30.98824         0.80787
C         60.03500        33.04711         0.03716
C         58.81805        33.81408         0.24207
C         60.04222        36.01550         0.39235
C         58.84594        35.28356         0.23282
C         60.03364        37.40694         0.35580
C         58.84001        38.15031         0.25628
C         59.99751        40.29132        -0.53865
C         58.92948        39.62102         0.10875
C         59.98432        41.67728        -0.67079
C         58.84516        42.46271        -0.34882
C         59.99275        44.66864        -0.66906
C         58.81494        43.90742        -0.42835
C         59.97977        46.04479        -0.59804
C         58.77382        46.74661        -0.32408
C         58.74298        48.16635        -0.22402
O         34.15599        42.76666        -2.58083
O         38.91217        50.71683        -1.74578
O         34.45987        28.84490        -1.60782
O         51.29327        30.30452         1.74057
O         43.00429        54.10077         3.25040
O         41.47443        21.38991        -1.61947
O         41.24314        26.07953        -2.22812
O         50.64185        44.53612        -1.80444
O         34.69514        20.59967         2.29153
O         24.27538        42.99993        -2.14279
O         49.92698        32.69808         1.28685
O         46.73107        26.06520        -2.43697
O         28.66547        33.66027         1.84938
O         44.64052        24.73554        -2.64848
O         56.98396        39.91763         1.47717
O         27.30747        39.87875         1.61565
O         39.02607        54.43619         2.26233
O         31.87942        44.16695        -2.40812
O         37.85167        32.30770        -2.37681
O         46.50341        34.34708        -2.38352
O         39.41733        41.87610         1.71691
O         36.44858        44.06218        -2.32191
O         49.35373        42.22240        -2.06593
O         35.69527        33.70519        -2.28819
O         36.05668        27.34648         1.49186
O         52.88414        36.71499        -1.97409
O         46.25425        30.21288         1.03215
O         49.82468        24.95414        -2.18946
O         40.69475        44.07384         1.89692
O         52.36015        41.93868        -1.96002
O         49.24070        43.37484         1.37615
H         49.06889        44.15907         1.93984
O         56.18326        34.30640         1.88765
H         56.07024        33.49483         2.42566
O         27.94534        42.33307         1.71344
H         27.52604        41.61014         2.24124
O         42.80386        23.71118         0.95254
H         42.98999        22.98454         1.58309
O         52.46661        40.34558         1.32577
H         52.55455        39.43191         1.69548
O         25.34390        35.81303        -1.62517
H         24.51952        36.24238        -1.93976
O         37.76932        35.55344         1.43593
H         38.50780        36.06571         1.83012
O         53.07589        28.55972         1.96492
H         52.68627        29.32957         2.44692
O         30.06751        35.87150        -1.99665
H         30.83768        36.29109        -2.43681
O         30.90011        44.58498         1.07361
H         30.08430        44.72528         1.60016
O         34.77025        31.24505        -2.51454
H         35.30862        31.82309        -3.10149
O         32.31453        26.96907        -1.31362
H         32.91975        27.45611        -1.92057
O         42.97793        53.56115        -0.34001
H         43.04560        52.81855        -0.97757
O         26.59308        25.68267        -0.76888
H         26.58250        24.84129        -1.27034
O         49.91766        26.89096         1.57934
H         50.59068        27.37489         2.10740
O         59.01067        31.13342         2.27051
H         59.08038        32.09404         2.45783
O         56.67097        34.77237        -1.70581
H         56.58657        35.56299        -2.27907
O         42.83914        27.03908         0.94335
H         43.59230        27.56072         1.29555
O         26.61199        26.36617         2.81567
H         26.62654        27.19804         3.33225
O         34.65520        31.20546         1.12706
H         34.00146        30.90484         1.79337
O         29.39244        26.77544         2.87421
H         29.25488        27.70141         3.16936
O         24.29056        46.68495        -2.81382
H         24.30861        45.73734        -3.06920
O         53.55121        29.40890        -1.55385
H         54.29373        29.81166        -2.05147
O         42.41920        23.75170        -2.63449
H         42.27106        24.47576        -3.28006
O         53.96589        39.52871        -1.96347
H         53.57500        40.35850        -2.31879
O         32.14475        27.08243         2.35582
H         31.43401        26.77024         2.96512
O         31.69231        22.18102         2.69628
H         32.54299        21.73801         2.90878
O         34.44716        52.46995        -2.92016
H         33.70410        51.96735        -3.31645
O         53.56552        37.99876         1.37361
H         54.39770        38.20854         1.85151
O         41.62364        17.17152         2.95139
H         40.77426        17.61845         3.15467
H         21.99712        26.89777         0.99901
H         21.96331        29.34705         0.80802
H         21.96605        31.23547         0.74829
H         21.95495        33.65820         0.56813
H         22.02168        35.60435         0.77113
H         22.05071        38.01712         0.51820
H         22.01951        39.85664        -0.05688
H         22.03666        42.18712        -0.75984
H         22.08153        44.19166        -0.53976
H         22.14654        46.63789        -0.73001
H         25.34464        23.52294         1.01006
H         23.26762        24.76215         1.37498
H         25.50070        49.92450        -0.58926
H         23.39355        48.74330        -0.92735
H         27.00879        22.63716         0.60463
H         27.13740        50.86987        -0.98819
H         29.08364        21.37587         0.87897
H         29.23475        52.06819        -1.09069
H         32.85600        19.24801         0.25649
H         30.74109        20.47767         0.32381
H         32.95243        54.20483        -1.13638
H         30.88965        52.99963        -0.89343
H         34.50676        18.19394         0.96874
H         34.63985        55.10007        -0.96714
H         36.62160        17.00725         0.73668
H         36.58237        56.22672         0.01022
H         40.44192        15.00411         1.33162
H         38.31058        16.08356         0.83314
H         40.20284        58.22141         1.64100
H         38.22824        57.20452         0.62469
H         42.90722        15.06448         1.40071
H         42.48336        58.11420         2.48576
H         44.94653        16.19113         0.70108
H         44.61386        56.95393         2.71061
H         48.66441        18.31193         0.21890
H         46.58674        17.15248         0.63151
H         48.47137        54.81820         2.20479
H         46.33853        55.96593         2.49724
H         50.27914        19.18366        -0.13165
H         50.12189        53.92424         1.93194
H         52.38622        20.37506        -0.23615
H         52.22803        52.78531         1.55173
H         56.11840        22.55207        -0.48894
H         54.02998        21.33312        -0.65227
H         55.96216        50.79041         0.71995
H         53.86092        51.92373         1.14972
H         57.74288        23.49330        -0.22217
H         57.58509        49.92828         0.11265
H         59.83478        24.73282         0.10777
H         61.02461        26.84851         0.52224
H         60.99441        29.30426         0.83346
H         60.98943        31.15178         0.02821
H         60.93473        33.56800        -0.32190
H         60.99827        35.49040         0.52598
H         60.98868        37.94515         0.43843
H         60.86342        39.72214        -0.90551
H         60.86819        42.16679        -1.10204
H         60.93938        44.15157        -0.87736
H         60.90770        46.61472        -0.75039
H         59.67904        48.72967        -0.34934
