         324
 CSIRO Nanostructure Databank - Neutral Graphene Oxide Data Set
C         30.51961        57.35564        -0.68105
C         30.38219        58.79926        -0.23947
C         29.28707        59.39839        -1.06620
C         30.74395        61.10847        -1.98243
C         29.49194        60.47132        -1.90106
C         32.86636        53.07077        -0.86151
C         32.86854        54.42925        -0.59410
C         31.73368        55.23996        -0.85954
C         32.93000        57.28211        -0.11912
C         31.70355        56.62503        -0.56321
C         32.91124        58.77373         0.14216
C         31.72323        59.42723        -0.49827
C         33.13151        61.26357        -1.34127
C         31.87127        60.58260        -1.28737
C         35.37559        48.65050        -0.64152
C         35.33728        50.10243        -0.70016
C         34.14111        50.80241        -0.78414
C         35.40024        52.99047        -0.50746
C         34.11069        52.26596        -0.88027
C         35.36389        54.40969        -0.08784
C         34.03264        55.06951         0.14030
C         35.36365        57.26946         0.25897
C         34.09651        56.58259         0.04733
C         35.42229        58.71405         0.07659
C         34.23860        59.40399        -0.19478
C         35.55199        61.37010        -0.84684
C         34.29497        60.71768        -0.76646
C         37.63706        44.31980         0.20219
C         37.73434        45.80441        -0.07244
C         36.56664        46.49513        -0.30431
C         37.85500        48.59788        -0.49903
C         36.53842        47.92248        -0.48913
C         37.86179        50.09509        -0.44258
C         36.57616        50.82587        -0.45820
C         37.78057        52.85054         0.31542
C         36.57078        52.17232        -0.18774
C         37.77264        54.33746         0.47557
C         36.51518        55.08029         0.22499
C         37.82182        57.19101         0.39158
C         36.54059        56.52608         0.36898
C         37.84848        58.63554         0.35789
C         36.69286        59.40605         0.08871
C         37.94327        61.56889        -0.54430
C         36.74322        60.80156        -0.35170
C         40.16387        40.03280         0.15051
C         40.16131        41.43995         0.27854
C         38.94913        42.20377         0.19403
C         40.19686        44.30125         0.31101
C         38.95675        43.58238         0.20987
C         40.23604        45.72821         0.24877
C         39.01589        46.48098         0.03661
C         40.28244        48.60211         0.19362
C         39.07152        47.86943        -0.08182
C         40.27184        50.00585         0.31122
C         39.08281        50.77588         0.04430
C         40.36400        52.88770         0.24720
C         39.06542        52.13781         0.21993
C         40.24633        54.35767         0.55401
C         39.06599        55.06124         0.46724
C         40.30508        57.20159        -0.03655
C         39.03483        56.49482         0.39796
C         40.35153        58.66375         0.37681
C         39.11157        59.24382         0.63415
C         40.48929        61.63373        -0.22811
C         39.16777        61.30383         0.09286
C         42.61507        35.71091        -0.30128
C         42.57456        37.15113        -0.18271
C         41.36984        37.86622         0.02275
C         42.60951        39.97939         0.30047
C         41.37336        39.29012         0.14838
C         42.62268        41.38575         0.50126
C         41.38619        42.13311         0.47867
C         42.63453        44.26974         0.64526
C         41.40431        43.56500         0.49328
C         42.67944        45.65562         0.50935
C         41.47992        46.40930         0.31077
C         42.72418        48.54863         0.53034
C         41.52082        47.86100         0.35120
C         42.73239        49.94583         0.96841
C         41.41631        50.69496         0.94312
C         42.75001        52.90015         0.92362
C         41.40471        52.21288         1.15194
C         42.76951        54.24935         0.78145
C         41.52514        55.05833         0.77600
C         42.86416        57.22240         0.05167
C         41.57313        56.52088         0.45982
C         42.83044        58.68780         0.45821
C         41.57558        59.40021         0.40307
C         42.86121        61.48901         0.30754
C         41.61514        60.85263         0.23375
C         45.11290        32.93176        -0.24431
C         43.88071        33.60754        -0.22332
C         45.10950        35.81045        -0.05607
C         43.81886        35.01921        -0.22211
C         44.98360        37.14102        -0.83349
C         43.79129        37.85922        -0.25564
C         45.11526        39.96977        -0.01115
C         43.89249        39.19004         0.40343
C         45.06708        41.42074         0.17188
C         43.84210        42.07624         0.64118
C         45.16513        44.21050         1.14201
C         43.81369        43.48561         1.17783
C         45.20535        45.67557         0.94775
C         43.98856        46.34254         0.48444
C         45.23188        48.54560         0.97142
C         44.02291        47.87568         0.45446
C         45.18891        49.97922         1.18433
C         44.01671        50.67843         1.06274
C         45.21958        52.91650         1.40072
C         44.06156        52.15974         0.75741
C         45.23015        54.26965         1.33264
C         44.06873        54.96708         0.71449
C         45.32055        57.19237         0.91907
C         44.12170        56.44093         0.46559
C         45.28237        58.62466         0.90603
C         44.03319        59.34644         0.68561
C         45.20776        61.49537         1.00180
C         44.05300        60.79998         0.68183
C         46.32034        33.60888        -0.35207
C         47.53994        35.70879        -0.67530
C         46.37055        35.04022        -0.41147
C         47.60423        37.18100        -0.78153
C         46.29598        37.93900        -0.81784
C         47.57629        40.03908        -0.31627
C         46.30204        39.35325        -0.37263
C         47.63611        41.40322         0.02683
C         46.38001        42.15448         0.18958
C         47.69109        44.24630         0.61650
C         46.44483        43.49117         0.83754
C         47.71750        45.66227         1.13889
C         46.39299        46.38385         1.00672
C         47.69196        48.46592         1.61965
C         46.40555        47.82368         1.10604
C         47.72353        49.98286         1.49748
C         46.42697        50.67190         1.65149
C         47.73384        52.89667         2.14182
C         46.40453        52.15161         1.88700
C         47.70211        54.32796         1.65017
C         46.40854        55.07616         1.83161
C         47.70695        57.21644         1.42824
C         46.46700        56.50572         1.32301
C         47.68935        58.63674         1.31656
C         46.45102        59.33124         1.21019
C         47.68049        61.48761         1.13247
C         46.41422        60.80188         1.54325
C         48.82872        37.91549        -0.46304
C         50.04974        40.06345        -0.37054
C         48.82496        39.31097        -0.40300
C         50.07628        41.44029        -0.21444
C         48.85402        42.12589         0.06880
C         50.07991        44.31687        -0.00703
C         48.83963        43.55752         0.32023
C         49.99416        45.81164        -0.08099
C         48.84555        46.50313         0.57635
C         50.15296        48.57441         0.97273
C         48.88666        47.80915         0.95744
C         50.15271        50.04246         1.07914
C         48.90964        50.71692         1.39513
C         50.15788        52.85047         1.43937
C         48.95786        52.15656         1.59542
C         50.25367        54.30130         1.74201
C         48.92156        55.08601         1.85145
C         50.18217        57.23506         1.55741
C         48.95521        56.53897         1.59565
C         50.13787        58.66302         1.42807
C         48.92303        59.35390         1.32261
C         50.10034        61.49535         0.85156
C         48.88349        60.80535         1.10733
C         51.36530        42.21077        -0.46463
C         52.59451        44.40863        -0.27055
C         51.40962        43.59101         0.22469
C         52.55531        45.75559        -0.29508
C         51.28379        46.56380        -0.25830
C         52.49989        48.72062         0.01625
C         51.38456        47.88242         0.46721
C         52.50893        50.09204         0.29812
C         51.32979        50.75483         0.83087
C         52.55137        52.91176         0.77425
C         51.35658        52.18797         0.98614
C         52.60189        54.33341         1.02198
C         51.46973        55.06004         1.39806
C         52.66812        57.22351         1.32466
C         51.47352        56.51854         1.49652
C         52.71185        58.70632         1.38226
C         51.38481        59.45355         1.45076
C         52.53225        61.51998         0.66792
C         51.34238        60.85793         0.97883
C         53.09296        46.74189        -1.31568
C         54.61358        48.82175        -1.15321
C         53.49783        48.09560        -0.78676
C         54.74107        50.18980        -0.74662
C         53.65488        50.84646        -0.07875
C         54.93171        52.92045        -0.00193
C         53.72519        52.23678         0.24056
C         55.12295        54.28403         0.51997
C         53.91955        54.99933         1.06830
C         55.22530        57.24661         0.82206
C         53.96302        56.50601         1.23178
C         55.14745        58.76355         0.64205
C         53.86552        59.44531         0.84419
C         54.90655        61.52902         0.05143
C         53.77614        60.82731         0.55464
C         55.89338        50.93008        -1.06818
C         57.16000        53.03027        -1.09719
C         56.01324        52.28169        -0.69035
C         57.28185        54.40166        -0.86939
C         56.32572        55.07787         0.03671
C         57.29572        57.26860        -0.58753
C         56.29231        56.55675         0.05679
C         57.27851        58.72144        -0.65558
C         56.18581        59.43885        -0.14921
C         57.15711        61.54810        -0.95376
C         56.08533        60.85702        -0.34687
C         58.32386        55.16271        -1.42785
C         59.41941        57.29223        -1.87279
C         58.37037        56.56848        -1.28869
C         59.43632        58.71238        -1.88637
C         58.33273        59.42478        -1.31971
C         59.37499        61.53584        -2.04655
C         58.28912        60.85162        -1.42743
C         60.49151        59.43180        -2.49358
C         60.45673        60.82931        -2.55719
O         41.87193        50.06638         2.18934
O         49.71463        54.68773         3.03367
O         44.21994        47.09093        -0.76128
O         39.06097        60.48757         1.25077
O         54.17844        55.61065         2.36905
O         51.64557        46.93647        -1.68694
O         37.61034        53.46546         1.66599
O         38.10008        49.39707        -1.72123
O         56.29893        54.44493         1.36700
O         46.00220        43.65349         2.24421
O         52.18877        59.25457         2.65240
O         49.79967        44.98167        -1.28830
O         47.01776        37.73107        -2.07336
O         55.69995        58.12847         1.87385
O         45.57771        42.18271        -1.03093
O         51.12855        47.89724         1.89251
O         44.45440        55.47624        -0.63108
O         35.01695        52.81459        -1.92737
O         41.50284        56.10231         1.83944
O         46.12748        51.24349         3.00798
O         46.32108        60.88140         3.02192
H         47.08409        60.38550         3.38920
O         46.24863        55.21938         3.28535
H         46.78270        54.50160         3.71642
O         47.75409        48.20418         3.04877
H         47.91267        47.23074         3.15954
O         44.66361        36.81955        -2.20148
H         45.49532        36.95135        -2.72075
O         41.00641        52.46957         2.50624
H         41.39258        51.75805         3.06645
O         44.09763        38.87456         1.85168
H         44.51869        37.98040         1.89884
O         44.34909        52.17981        -0.68549
H         44.29894        53.11246        -0.99125
O         42.89064        57.29071        -1.40827
H         43.43360        56.52352        -1.71647
O         40.26092        57.14640        -1.48932
H         41.16500        57.39393        -1.81458
O         47.87466        52.96383         3.59813
H         47.50077        52.11700         3.94614
O         32.74543        58.91708         1.61026
H         33.45102        58.38532         2.03770
O         43.48200        43.34463         2.60214
H         44.30376        43.04813         3.05650
O         33.74397        54.78956         1.56220
H         34.53406        55.04599         2.08488
O         51.51632        43.34783         1.64486
H         51.63294        44.20437         2.10634
O         48.01281        45.52087         2.57752
H         47.34692        44.87514         2.92411
O         51.50052        42.40573        -1.87920
H         50.80960        43.03994        -2.16953
O         40.92290        52.80295        -1.10439
H         40.23353        53.07602        -1.74606
O         36.71141        43.69881        -0.69931
H         37.05217        43.80745        -1.61069
O         30.01989        58.88201         1.16980
H         30.85797        58.81859         1.68758
O         45.22567        36.18366         1.35358
H         45.26156        35.35664         1.87984
H         29.66153        56.87783        -1.18104
H         28.28611        58.95021        -0.98360
H         30.86579        62.00738        -2.60256
H         28.65096        60.87451        -2.48433
H         31.95224        52.61000        -1.26920
H         30.83206        54.76969        -1.28058
H         33.18924        62.22755        -1.86786
H         34.41455        48.11446        -0.67727
H         33.18683        50.25431        -0.77663
H         35.59229        62.37409        -1.29532
H         37.18896        44.20112         1.23065
H         35.61879        45.93696        -0.34003
H         37.89198        62.40104        -1.26292
H         39.20852        39.50256         0.02134
H         37.99020        41.67426         0.09210
H         40.70047        62.49856        -0.87484
H         41.66764        35.15267        -0.34606
H         40.41077        37.32852         0.01207
H         42.91148        62.57914         0.16862
H         45.11537        31.83252        -0.23409
H         42.94492        33.03081        -0.25231
H         45.20437        62.59577         0.97369
H         47.25907        33.04512        -0.45326
H         48.46744        35.13741        -0.83719
H         47.67146        62.57594         0.97184
H         49.77495        37.36214        -0.37418
H         50.99331        39.52266        -0.53901
H         50.06506        62.55808         0.57069
H         52.24112        41.60060        -0.13015
H         53.47635        43.86513        -0.64455
H         52.49328        62.57888         0.37368
H         53.71708        46.35806        -2.15305
H         55.40735        48.36821        -1.76493
H         54.82525        62.61273        -0.11559
H         56.71713        50.44624        -1.61276
H         57.92669        52.52073        -1.69958
H         57.09958        62.64010        -1.07070
H         59.09826        54.65850        -2.02477
H         60.23526        56.74349        -2.36645
H         59.34422        62.63230        -2.11837
H         61.34118        58.88128        -2.92175
H         61.28792        61.37111        -3.03001
