         324
 CSIRO Nanostructure Databank - Neutral Graphene Oxide Data Set
C          1.35946         3.62372         1.77869
C          0.24103         4.36905         1.97244
C          1.12602         6.30811         0.76120
C          0.10823         5.70100         1.43552
C          1.08118         7.70834         0.18246
C         -0.10684         8.53842         0.58661
C          1.15139        10.65259         0.48827
C         -0.06124         9.89666         0.64519
C          1.16861        12.05851         0.34362
C         -0.04553        12.80880         0.24156
C          1.16588        14.92299         0.11352
C         -0.04869        14.17581         0.11129
C          1.17290        16.36979        -0.00420
C         -0.02771        17.09989        -0.05581
C          1.15603        19.22961        -0.26412
C         -0.03492        18.48634        -0.16931
C          1.14590        20.67989        -0.32272
C         -0.06152        21.39045        -0.20243
C          1.11301        23.50936        -0.37135
C         -0.07083        22.77798        -0.21034
C          1.04512        24.98907        -0.39089
C         -0.05892        25.68509         0.28671
C          1.26104        27.74094         0.48228
C          0.03262        26.99809         0.61934
C          1.33147        29.08184         0.98878
C          3.77599         3.49665         1.01002
C          2.44627         4.09691         0.91196
C          3.59840         6.27765         0.09746
C          2.34383         5.55223         0.40502
C          3.64235         7.66428         0.09415
C          2.40281         8.40695         0.46680
C          3.67856        10.60712         0.21636
C          2.42373         9.90924         0.55642
C          3.66448        12.05456         0.17757
C          2.41709        12.78304         0.28820
C          3.62869        14.97980         0.30582
C          2.38118        14.20341         0.23454
C          3.64063        16.42130        -0.01334
C          2.41085        17.10392        -0.10226
C          3.62307        19.25569        -0.40521
C          2.40290        18.53478        -0.26543
C          3.61372        20.69928        -0.57235
C          2.36455        21.40546        -0.48212
C          3.59644        23.56101        -0.70721
C          2.35259        22.83200        -0.53795
C          3.62143        24.97727        -0.62430
C          2.36406        25.74574        -0.52397
C          3.67511        27.80317        -0.02432
C          2.41907        27.11942        -0.00168
C          3.72479        29.15886         0.49881
C          2.51913        29.75180         1.01844
C          6.15271         3.44692         0.48415
C          4.89259         4.09320         0.43650
C          6.14885         6.25126        -0.22817
C          4.80769         5.46736        -0.12638
C          6.10103         7.71969        -0.15724
C          4.87195         8.40967        -0.07737
C          6.04875        10.59774        -0.43127
C          4.82517         9.86687        -0.06478
C          6.09155        12.06066        -0.28436
C          4.87521        12.74948        -0.02536
C          6.07961        14.96820        -0.38652
C          4.91900        14.21058         0.14424
C          6.12256        16.43211        -0.23245
C          4.87234        17.12414        -0.15476
C          6.09299        19.22209        -0.54650
C          4.85596        18.54030        -0.36257
C          6.05119        20.63719        -0.98738
C          4.80110        21.41378        -0.82205
C          6.03375        23.59481        -1.15792
C          4.82309        22.84825        -0.90552
C          6.05078        24.99271        -0.99271
C          4.84353        25.69219        -0.66128
C          6.06105        27.89916        -0.66680
C          4.83872        27.12523        -0.44871
C          6.09927        29.37529        -0.10591
C          4.92350        29.84611         0.59448
C          8.61302         3.47371         0.55859
C          7.38412         4.14251         0.34884
C          8.58576         6.29277         0.34144
C          7.39099         5.55967         0.14586
C          8.56128         7.73133         0.18868
C          7.36925         8.39595        -0.06514
C          8.59692        10.62161        -0.17268
C          7.38344         9.83821        -0.37542
C          8.54846        12.00475        -0.32182
C          7.32863        12.72949        -0.36684
C          8.60305        14.97938        -0.38615
C          7.37192        14.20082        -0.54148
C          8.61141        16.37245        -0.42951
C          7.34536        17.11292        -0.39402
C          8.57855        19.30622        -0.49709
C          7.31143        18.53979        -0.50622
C          8.62260        20.72012        -0.89081
C          7.33321        21.37258        -1.22758
C          8.61565        23.57503        -1.52284
C          7.29833        22.85863        -1.45737
C          8.59218        25.08290        -1.54122
C          7.29001        25.79194        -1.25244
C          8.53851        27.92994        -0.72116
C          7.35579        27.22084        -0.83116
C          8.55679        29.30673        -0.24804
C          7.41941        29.93982         0.15629
C         11.07039         3.47844         0.74451
C          9.83177         4.18371         0.66665
C         11.04649         6.36473         0.87927
C          9.79804         5.61244         0.63409
C         11.10678         7.77836         0.44741
C          9.79868         8.52182         0.57870
C         11.04271        10.54198        -0.21631
C          9.84839         9.92318         0.03281
C         11.04280        11.97851        -0.56094
C          9.82170        12.74217        -0.16008
C         11.14711        14.95252        -0.31999
C          9.84647        14.23387        -0.12126
C         11.10493        16.39511        -0.64833
C          9.88510        17.06973        -0.53609
C         11.09406        19.27196        -0.91698
C          9.90024        18.54545        -0.48556
C         11.09027        20.66690        -0.97104
C          9.82833        21.39136        -0.93223
C         11.13807        23.55303        -1.14520
C          9.81460        22.90272        -0.85459
C         11.16406        25.02423        -1.22761
C          9.89462        25.82902        -1.38955
C         11.05305        27.89526        -0.31917
C          9.86268        27.28822        -0.98328
C         11.06943        29.23429         0.05132
C          9.85659        30.08762        -0.21829
C         13.52200         3.42261         0.63804
C         12.32685         4.12131         0.80472
C         13.58752         6.33976         0.66810
C         12.35216         5.59615         0.98794
C         13.55945         7.68074         0.36051
C         12.30448         8.40304         0.20107
C         13.57200        10.57783        -0.38278
C         12.30347         9.75894        -0.48611
C         13.60774        11.94597        -0.70723
C         12.32276        12.69250        -0.82542
C         13.59162        14.87906        -1.21970
C         12.38384        14.18199        -0.61964
C         13.59017        16.38204        -1.01309
C         12.34833        17.05425        -0.93862
C         13.62569        19.25540        -1.31825
C         12.29787        18.49794        -1.23657
C         13.58648        20.70200        -1.06444
C         12.34996        21.38577        -1.05698
C         13.58363        23.49716        -0.75398
C         12.33505        22.82752        -0.99221
C         13.52008        24.86995        -0.19082
C         12.35961        25.71181        -0.59375
C         13.47712        27.73969         0.57515
C         12.20316        27.05604         0.03263
C         13.46594        29.20680         0.67845
C         12.24356        29.87767         0.52931
C         16.06385         3.38230         0.38836
C         14.83053         4.06545         0.77597
C         16.10067         6.26860         0.28704
C         14.86919         5.62034         0.77490
C         16.09777         7.68817         0.10144
C         14.84861         8.41620         0.30791
C         16.08839        10.48491        -0.58720
C         14.82823         9.90892        -0.05848
C         16.08883        11.99611        -0.88721
C         14.80811        12.68528        -0.75547
C         16.11003        14.89543        -0.65189
C         14.81157        14.16138        -0.67423
C         16.09996        16.35559        -0.92596
C         14.84334        17.07477        -1.03537
C         16.06635        19.23464        -0.92766
C         14.87688        18.51199        -1.07973
C         16.09000        20.67450        -0.87749
C         14.82570        21.38371        -0.88966
C         16.06675        23.53824        -0.65699
C         14.79042        22.79193        -0.71663
C         16.05109        24.98677        -0.22516
C         14.76899        25.59834         0.20510
C         15.95581        27.74318         0.64905
C         14.77559        27.05882         0.43711
C         15.89483        29.12406         1.11467
C         14.68363        29.84561         1.00374
C         18.51343         3.37433         0.09353
C         17.25174         4.07755         0.22241
C         18.49590         6.19155        -0.40147
C         17.26225         5.51872         0.13185
C         18.54917         7.67768        -0.15898
C         17.32948         8.39658        -0.08520
C         18.56621        10.52302        -0.46132
C         17.35766         9.81659        -0.29276
C         18.57411        11.95654        -0.69439
C         17.36835        12.70596        -0.79072
C         18.57338        14.85012        -0.84426
C         17.38180        14.14030        -0.75866
C         18.57940        16.29774        -0.80941
C         17.31663        17.01943        -0.85320
C         18.62305        19.22066        -0.74095
C         17.32221        18.48976        -0.71668
C         18.64568        20.70776        -1.06542
C         17.31705        21.38007        -0.73434
C         18.51243        23.52144        -0.28896
C         17.33781        22.79173        -0.55134
C         18.45948        24.94228        -0.12675
C         17.30226        25.65579         0.14183
C         18.42708        27.64778         1.49516
C         17.27640        27.06986         0.55480
C         18.04342        28.82568         2.29998
C         16.95900        29.63334         1.89593
C         19.71202         4.04236         0.03510
C         20.96434         6.18559        -0.06107
C         19.76913         5.46459        -0.07125
C         20.98260         7.58172        -0.19418
C         19.79105         8.35390        -0.23643
C         21.00512        10.53340        -0.41910
C         19.81155         9.80887        -0.34632
C         21.00665        11.92152        -0.63105
C         19.82508        12.64186        -0.77294
C         21.06689        14.86769        -0.75133
C         19.84651        14.10303        -1.18050
C         21.02877        16.22030        -0.65323
C         19.80620        16.97245        -0.75922
C         20.95185        19.13994        -0.07834
C         19.92622        18.46874        -0.97470
C         20.90036        20.45477         0.17759
C         19.87963        21.36922        -0.40753
C         20.68224        23.30046         1.10156
C         19.81341        22.82962        -0.01895
C         20.68380        24.50372         1.74816
C         19.96786        25.66348         1.28644
C         19.95125        26.99125         3.35563
C         19.47494        26.74293         2.03691
C         19.61882        28.15193         4.04436
C         18.71302        29.08101         3.51107
O         11.66274         6.08495         2.19040
O          2.06480         4.41837        -0.47437
O         12.90877        18.84122        -2.52843
O          5.47458         5.66577        -1.39427
O         18.37082        27.88672         0.07023
O         11.48397        12.26777        -1.95656
O         16.02345        10.96639        -1.95447
O         14.99625         4.86850         2.00933
O          1.45663        25.57138        -1.66954
O          7.78872        25.60046        -2.62560
O         12.12440        14.62454         0.73663
O         15.33514        14.64045         0.60207
O         20.50580        22.39386        -1.25520
O         13.96967        24.86866         1.20863
O          4.49007        14.65569         1.46647
O         18.03634        18.93071         0.54800
O          9.85833        13.44456         1.12814
O          6.53738        14.57582        -1.71395
O         14.93873         9.47374         1.33786
O         10.05117        26.88444        -2.38033
O         12.23348        25.62505        -2.03634
O          6.70740        10.12149        -1.64643
O          6.63989        20.71101        -2.35072
O         12.51611        27.06452         1.45824
O         16.06350        24.62237        -1.65770
O          8.03157        23.06452        -2.73335
O          5.87530        29.06094        -1.51557
O          9.31775        19.07341         0.76243
O         19.68522        25.62917        -0.08814
O          2.50316         9.03657         1.77238
O         18.81906        20.83873        -2.50365
H         19.26213        21.70911        -2.65133
O         18.38193         6.08129        -1.88717
H         19.16673         6.53145        -2.26830
O          9.78587        31.16682         0.71693
H          9.82797        30.79421         1.62116
O         20.34480        18.61543        -2.35542
H         20.00745        19.48818        -2.68330
O         19.91026        14.07867        -2.65811
H         19.96003        15.01086        -2.96166
O         12.22870         9.43957        -1.92507
H         12.06202        10.29268        -2.39426
O          1.03041         7.55024        -1.26757
H          0.42608         6.80877        -1.48075
O         13.61722        14.64793        -2.64991
H         12.94509        15.21682        -3.07990
O          9.55833        23.21347         0.57596
H         10.22249        22.72887         1.11318
O          9.64795         8.70795         2.03413
H         10.01528         7.91617         2.48499
H          1.48974         2.66373         2.29974
H         -0.56932         3.98701         2.60899
H         -0.81483         6.25268         1.66286
H         -1.08102         8.03740         0.68770
H         -1.00124        10.43809         0.82588
H         -1.00844        12.28146         0.24723
H         -1.01379        14.68985         0.01570
H         -0.99425        16.58422         0.01141
H         -1.00822        18.99293        -0.18743
H         -1.01628        20.86216        -0.09077
H         -1.03213        23.29957        -0.11776
H         -0.96426        25.12447         0.55780
H         -0.81836        27.49918         1.10400
H          0.41378        29.55186         1.37040
H          3.88630         2.54260         1.54739
H          2.57269        30.77688         1.41216
H          6.18395         2.39018         0.78890
H          4.98769        30.76646         1.19360
H          8.61786         2.37852         0.65890
H          7.49362        30.93282         0.62605
H         11.04474         2.38017         0.68399
H          9.97863        30.55696        -1.23411
H         13.49049         2.35356         0.37819
H         12.20388        30.96565         0.68552
H         16.04707         2.28876         0.26690
H         14.67347        30.91389         1.26661
H         18.50119         2.27593         0.14865
H         16.79860        30.58768         2.42130
H         20.65624         3.47773         0.06931
H         21.91667         5.64917         0.06562
H         21.95868         8.08462        -0.21471
H         21.97314        10.02165        -0.33425
H         21.97867        12.42553        -0.71421
H         22.03728        14.35544        -0.69484
H         21.96885        16.76731        -0.49378
H         21.77079        18.54713         0.35472
H         21.70721        20.90233         0.77577
H         21.33194        22.53214         1.54586
H         21.27434        24.58389         2.67445
H         20.68421        26.29883         3.79341
H         20.07190        28.34367         5.02638
H         18.45796        29.98475         4.08275
