         598
 CSIRO Nanostructure Databank - Neutral Graphene Oxide Data Set
C         23.13200        69.70536         2.09948
C         23.08552        71.09212         2.37248
C         22.08691        71.65444         3.17121
C         23.18107        73.84172         3.19449
C         22.11124        73.02392         3.52343
C         25.52731        65.65392         0.68088
C         25.40114        67.05444         0.65530
C         24.31019        67.70074         1.27014
C         25.25972        69.97164         0.85733
C         24.16560        69.10379         1.36038
C         25.39466        71.33406         1.41966
C         24.09337        72.02186         1.72294
C         25.46467        74.03473         2.28918
C         24.27787        73.33828         2.43751
C         27.76135        61.39590        -0.42349
C         27.74956        62.79445        -0.37712
C         26.65700        63.54831         0.12063
C         27.65712        65.72150        -0.70769
C         26.59572        64.95012         0.08156
C         27.72978        67.16359        -0.27107
C         26.38269        67.85302        -0.20152
C         27.75948        69.96942         0.47937
C         26.45001        69.33065         0.21483
C         27.80013        71.37081         0.89886
C         26.56985        72.04114         1.28986
C         27.84052        74.13100         1.63346
C         26.63610        73.43843         1.71040
C         30.17715        57.09723        -1.17143
C         30.16279        58.49692        -1.07585
C         28.94683        59.25517        -0.90178
C         30.25587        61.34389        -0.52304
C         28.93697        60.63531        -0.72012
C         30.22639        62.83391        -0.75891
C         28.92489        63.53739        -0.97948
C         30.17442        65.68600        -0.45418
C         28.97842        65.00618        -0.63735
C         30.20227        67.12022        -0.23210
C         28.92143        67.82930        -0.10157
C         30.18523        69.98509         0.28174
C         28.91037        69.23211         0.31300
C         30.26054        71.23785         1.13601
C         29.00341        72.05509         1.02069
C         30.29199        74.15691         1.24704
C         29.06638        73.46784         1.30456
C         32.75386        52.78563        -1.09818
C         32.73615        54.22611        -1.13307
C         31.47316        54.93798        -1.13885
C         32.65526        57.08036        -1.07055
C         31.38975        56.32214        -1.19109
C         32.63622        58.50341        -1.51871
C         31.40216        59.25000        -1.23137
C         32.68786        61.34345        -1.17348
C         31.43832        60.62851        -1.13441
C         32.66043        62.81176        -0.95414
C         31.39653        63.53800        -0.70523
C         32.62254        65.63123        -0.07118
C         31.43661        64.97695        -0.47142
C         32.68316        67.07194         0.04832
C         31.43666        67.77885        -0.14015
C         32.72646        69.98910        -0.07892
C         31.42560        69.25769        -0.08547
C         32.80048        71.37009         0.47480
C         31.56783        72.02777         1.01090
C         32.73858        74.20249         0.79672
C         31.54687        73.51390         1.01104
C         34.87758        48.36247        -0.66529
C         34.62314        49.61301        -1.27996
C         33.74959        50.60353        -0.86083
C         35.24173        52.65210        -1.36839
C         33.88866        51.99775        -1.21023
C         35.24278        54.15821        -1.24373
C         33.95790        54.89863        -1.13913
C         35.25330        57.11096        -1.11731
C         33.96847        56.35660        -0.97136
C         35.22939        58.55950        -1.29062
C         33.96063        59.25583        -1.58188
C         35.14643        61.28482        -0.76643
C         33.90220        60.69189        -1.31833
C         35.10636        62.67203        -0.26163
C         33.91025        63.51327        -0.54660
C         34.80787        65.07498         1.03957
C         33.79488        64.80183         0.15870
C         35.10605        67.28035         0.81223
C         33.93908        67.78732         0.18591
C         35.28330        69.98362        -0.07901
C         33.99446        69.22428        -0.18742
C         35.25677        71.46429         0.13445
C         34.03421        72.15668         0.25471
C         35.22946        74.26761         0.48175
C         34.00728        73.55752         0.51752
C         38.06288        44.89900         0.47908
C         37.83211        45.95807        -0.39934
C         36.59792        46.63469        -0.19439
C         37.79654        48.48524        -2.17974
C         36.00136        47.58830        -1.02625
C         37.75637        49.89032        -2.28154
C         36.54215        50.61468        -2.18441
C         37.74172        52.70263        -1.89978
C         36.49902        51.99245        -1.89168
C         37.74538        54.17249        -1.98486
C         36.43504        54.92015        -1.77415
C         37.72669        57.12170        -2.04250
C         36.52792        56.38269        -1.44832
C         37.75739        58.68276        -1.74981
C         36.44718        59.26236        -1.20125
C         37.70715        61.41254        -0.84115
C         36.45258        60.64043        -0.99612
C         37.65884        62.81801        -0.22311
C         36.34150        63.35490         0.17608
C         37.92559        65.69269         0.96529
C         36.06889        64.37773         1.03883
C         37.70430        67.10588         0.70557
C         36.44718        67.77885         0.62628
C         37.77160        69.95406         0.39120
C         36.52224        69.20015         0.17504
C         37.72310        71.42946         0.50706
C         36.46351        72.16614         0.31116
C         37.72719        74.31574         0.35093
C         36.47860        73.59730         0.38902
C         40.72530        41.24334         2.39248
C         40.57257        42.25572         1.45305
C         39.38472        43.05903         1.41409
C         40.27774        44.32800        -0.50059
C         39.19645        44.04571         0.46008
C         40.17486        45.55562        -1.39232
C         38.80093        46.26356        -1.56956
C         40.22334        48.38847        -1.90907
C         38.96527        47.75603        -1.85474
C         40.31123        49.83931        -2.22249
C         39.02080        50.62683        -2.34307
C         40.23405        52.75003        -1.85995
C         39.00290        52.06171        -2.02925
C         40.22974        54.18696        -1.69711
C         39.02417        54.89260        -1.85218
C         40.22057        57.07674        -1.26491
C         38.95438        56.34621        -1.55487
C         40.18291        58.55182        -1.13456
C         38.99321        59.22696        -1.04583
C         40.11922        61.29324        -0.26202
C         38.98169        60.65005        -0.70762
C         40.16096        62.72589        -0.03772
C         38.90352        63.40216         0.47147
C         40.07513        65.66307        -0.15279
C         38.92602        64.93447         0.39890
C         40.10706        67.11379         0.10342
C         38.93021        67.80941         0.35596
C         40.19027        69.98113        -0.03859
C         38.94699        69.26425         0.32628
C         40.22275        71.48337         0.00892
C         39.00423        72.20787         0.47127
C         40.23873        74.31884         0.19607
C         38.98546        73.67958         0.29055
C         43.45153        37.69884         4.60756
C         43.06775        38.42811         3.39647
C         42.00998        39.44195         3.40493
C         42.87026        40.56617         1.34825
C         41.87420        40.39166         2.39759
C         42.80724        41.68085         0.51495
C         41.66910        42.55613         0.55948
C         42.69670        44.19573        -0.98337
C         41.59280        43.70880        -0.25044
C         42.69743        45.52846        -1.49549
C         41.46243        46.27290        -1.59329
C         42.71731        48.41819        -1.95030
C         41.44714        47.66746        -1.76447
C         42.72646        49.89691        -1.72271
C         41.52291        50.60721        -1.85933
C         42.71230        52.73883        -1.52547
C         41.48801        52.03168        -1.76920
C         42.70894        54.18395        -1.38450
C         41.49030        54.86901        -1.47220
C         42.80085        57.09060        -1.31364
C         41.50163        56.34893        -1.51087
C         42.75985        58.55760        -0.99282
C         41.45382        59.27632        -0.91567
C         42.66052        61.29856        -0.13415
C         41.38531        60.50162        -0.03763
C         42.63167        62.69409        -0.14632
C         41.35876        63.39938        -0.14123
C         42.66818        65.55584        -0.24678
C         41.39268        64.86601        -0.32366
C         42.67322        67.01989        -0.10101
C         41.41444        67.80245         0.09333
C         42.65210        69.96763        -0.16679
C         41.47086        69.27289        -0.05609
C         42.70197        71.41540        -0.02461
C         41.51374        72.16284         0.12115
C         42.73211        74.25392         0.31577
C         41.50186        73.60886         0.23263
C         45.92700        35.05542         5.65492
C         44.87594        36.10497         5.86929
C         45.56913        37.00248         3.57055
C         44.57737        36.92284         4.62867
C         45.42542        37.91244         2.52124
C         44.11203        38.52390         2.28762
C         45.19636        39.92560         0.40350
C         43.97480        39.58627         1.23540
C         45.15064        41.15917        -0.47405
C         43.87422        41.97580        -0.48693
C         45.22665        44.02799        -1.45030
C         43.88357        43.34964        -1.11718
C         45.19764        45.51244        -1.51790
C         43.96845        46.17539        -1.66593
C         45.24794        48.35989        -1.49249
C         43.99957        47.64013        -1.90274
C         45.19800        49.84078        -1.34110
C         43.93183        50.60124        -1.53212
C         45.18264        52.71665        -1.12466
C         43.93456        52.01544        -1.43085
C         45.15953        54.15459        -0.88495
C         43.96032        54.88735        -1.08111
C         45.13273        56.99432        -0.45049
C         43.99116        56.31197        -0.91985
C         45.12088        58.44046        -0.18025
C         43.93719        59.18078        -0.35165
C         45.10095        61.25322         0.26252
C         43.90223        60.57220        -0.07487
C         45.04297        62.71019         0.42796
C         43.84763        63.43198        -0.02073
C         45.16189        65.54392        -0.20024
C         43.87850        64.84982        -0.11160
C         45.15590        66.95833        -0.68230
C         43.87632        67.74376        -0.60209
C         45.20675        69.93436        -0.38204
C         43.90340        69.24757        -0.53117
C         45.19002        71.33666        -0.09018
C         43.96703        72.05596         0.06738
C         45.27006        74.18235         0.25688
C         43.99180        73.47283         0.59004
C         46.82611        35.13235         4.65511
C         47.80269        36.39564         2.77070
C         46.76959        36.18987         3.65571
C         47.78459        37.49302         1.84218
C         46.55405        38.27009         1.68114
C         47.69437        39.65982        -0.09984
C         46.49527        39.32228         0.78005
C         47.75695        41.13634        -0.50786
C         46.45020        41.75978        -1.06755
C         47.61984        44.01198        -0.93183
C         46.45099        43.29511        -1.05614
C         47.67254        45.40522        -1.46096
C         46.44942        46.22570        -1.56055
C         47.78617        48.35432        -1.69860
C         46.53919        47.62952        -1.63655
C         47.77563        49.87774        -1.72302
C         46.46794        50.60976        -1.50898
C         47.58288        52.67279        -0.50810
C         46.38156        52.02840        -1.05405
C         47.59724        54.14280        -0.31883
C         46.36525        54.84437        -0.53022
C         47.54848        56.92442         0.05865
C         46.34627        56.25297        -0.28827
C         47.48824        58.32312         0.50484
C         46.27947        59.12425         0.27978
C         47.55582        61.30340         0.63800
C         46.31295        60.54442         0.42656
C         47.60549        62.68072         0.57300
C         46.35930        63.48834         0.55732
C         47.65195        65.52426        -0.20529
C         46.34671        64.87994         0.05101
C         47.71491        66.99738        -0.54268
C         46.44004        67.75769        -0.73876
C         47.65393        69.88043        -0.15931
C         46.41935        69.21904        -0.44188
C         47.63824        71.28785         0.04082
C         46.43817        72.01997         0.04201
C         47.71635        74.16784         0.07965
C         46.45455        73.48274         0.13511
C         48.93590        37.87345         1.18327
C         50.11169        39.90487         0.67297
C         48.97823        39.16926         0.54130
C         50.15305        41.40886         0.63129
C         48.95128        41.98528        -0.15948
C         49.87138        44.31702        -0.05509
C         48.80500        43.46486        -0.32209
C         50.12080        45.55676        -0.68902
C         48.97374        46.15214        -1.41271
C         50.31356        48.09624        -1.73229
C         48.97531        47.61001        -1.62104
C         50.28517        50.27288        -1.61532
C         48.99963        50.66909        -1.35261
C         50.14403        52.84519        -0.67154
C         48.89579        51.94398        -0.60660
C         50.02755        54.00053         0.34114
C         48.78035        54.81297         0.00909
C         50.01994        57.00268         0.03682
C         48.79007        56.24201         0.11069
C         49.96998        58.40077         0.11812
C         48.79686        59.07027         0.67865
C         50.15966        61.27723         0.62463
C         48.83524        60.56433         0.80832
C         50.17217        62.73466         0.42919
C         48.89437        63.42708         0.66029
C         50.16995        65.56792         0.00340
C         48.89280        64.90829         0.35058
C         50.16515        66.99691        -0.14093
C         48.94791        67.73320        -0.23043
C         50.16489        69.81421        -0.00543
C         48.91492        69.13603        -0.11540
C         50.19091        71.25875         0.30291
C         48.89325        72.01108         0.35064
C         50.18004        74.14113         0.23787
C         48.93205        73.48662         0.19530
C         51.48559        41.91277         0.06468
C         52.83844        44.09396        -0.29976
C         51.79843        43.23734         0.19171
C         52.68123        45.48913        -0.45337
C         51.38524        46.17978        -0.63773
C         52.60333        48.36211        -0.73109
C         51.43405        47.52623        -1.14168
C         52.61028        49.86283        -0.58122
C         51.45145        50.74620        -0.91159
C         52.61262        52.67982        -0.02383
C         51.41012        52.04000        -0.43499
C         52.61952        54.07586         0.21828
C         51.32721        54.79926         0.35644
C         52.64626        56.87697        -0.23137
C         51.32822        56.27967         0.09114
C         52.77819        58.16303        -0.76080
C         50.98354        59.25877        -0.42329
C         52.52495        61.23276        -0.33856
C         51.28713        60.54744        -0.01269
C         52.58514        62.63023        -0.16623
C         51.35206        63.38453         0.10249
C         52.62181        65.53009        -0.08011
C         51.36761        64.83764        -0.00303
C         52.63844        66.95369        -0.07320
C         51.40043        67.69795        -0.13452
C         52.66879        69.85765        -0.31873
C         51.37170        69.11792        -0.11387
C         52.65674        71.32093         0.06554
C         51.45727        72.00887         0.17519
C         52.65296        74.14221         0.30205
C         51.42720        73.44754         0.27019
C         53.87218        46.25013        -0.69097
C         55.08685        48.41121        -0.79644
C         53.90538        47.65443        -0.75852
C         55.13899        49.82213        -0.55956
C         53.91477        50.54803        -0.33893
C         54.96783        52.65118         0.47821
C         53.84320        51.92898         0.00505
C         55.08260        54.06303         0.39230
C         53.83699        54.78611         0.30467
C         55.07757        56.92968         0.07192
C         53.85000        56.21828         0.12761
C         55.08386        58.31867        -0.20610
C         53.88864        58.98583        -0.55598
C         55.08702        61.24857        -0.66998
C         53.76975        60.47785        -0.73786
C         55.07413        62.68356        -0.34023
C         53.84009        63.36433        -0.21211
C         55.09294        65.48987         0.07370
C         53.85171        64.79431        -0.06264
C         55.08856        66.93608         0.23188
C         53.86597        67.63816         0.11775
C         55.10887        69.86766         0.44379
C         53.82591        69.10604         0.29673
C         55.14049        71.33265         0.20274
C         53.89952        72.02342         0.16028
C         55.12826        74.12829         0.42885
C         53.89050        73.45353         0.28334
C         56.42115        50.46420        -0.68979
C         57.69975        52.67125        -0.34564
C         56.74887        51.67401        -0.05577
C         57.59919        54.03642         0.08117
C         56.35258        54.70829         0.36794
C         57.63145        56.92975         0.29803
C         56.33366        56.19576         0.41149
C         57.63409        58.31418        -0.25641
C         56.34890        59.04700        -0.46047
C         57.57510        61.20127        -0.43542
C         56.36602        60.52133        -0.49114
C         57.59208        62.66422        -0.38759
C         56.31917        63.36757        -0.22863
C         57.59860        65.44642         0.22398
C         56.30939        64.75740         0.02769
C         57.58863        66.93056         0.42287
C         56.30761        67.66749         0.38545
C         57.56091        69.80553         0.46905
C         56.35282        69.08287         0.43407
C         57.58157        71.21413         0.27194
C         56.37019        72.02095         0.20368
C         57.54214        74.25097         0.70131
C         56.37165        73.47109         0.36832
C         58.81926        54.79550        -0.00559
C         60.09516        56.93102         0.02096
C         58.89461        56.18138         0.10633
C         60.12260        58.34698        -0.02280
C         58.87472        59.08905        -0.14720
C         60.10127        61.15476        -0.55954
C         58.82604        60.45513        -0.32216
C         60.07239        62.64175        -0.72346
C         58.80338        63.37109        -0.44743
C         60.05173        65.52278        -0.21897
C         58.85856        64.79023        -0.20974
C         60.09933        66.94060         0.04836
C         58.80221        67.70985        -0.03915
C         60.11658        69.79902         0.42883
C         58.84347        69.04401         0.70602
C         60.10690        71.20562         0.32627
C         58.84218        71.79301         0.00568
C         60.10937        74.20858         0.85046
C         58.84281        73.88016         0.33923
C         61.33627        59.07018        -0.00316
C         62.54958        61.20879        -0.06136
C         61.37160        60.46809        -0.20419
C         62.60303        62.62923        -0.19276
C         61.38544        63.36252        -0.62801
C         62.58807        65.51198        -0.00956
C         61.35271        64.84244        -0.43212
C         62.60073        66.98974        -0.20634
C         61.29001        67.64255         0.16094
C         62.54652        69.80786         0.41078
C         61.32016        69.08304         0.34213
C         62.53499        71.23406         0.54443
C         61.30961        71.97302         0.43453
C         62.52796        74.03535         0.94841
C         61.29699        73.41060         0.67416
C         63.74927        63.34683         0.12470
C         64.98262        65.50331         0.43598
C         63.78084        64.79101         0.16225
C         65.00818        66.92460         0.55004
C         63.81001        67.67806         0.34826
C         64.99811        69.76939         0.81013
C         63.79062        69.07647         0.50605
C         64.98733        71.18835         0.94540
C         63.76577        71.91354         0.80491
C         64.97431        74.00743         1.25776
C         63.76166        73.33532         0.98976
C         66.19878        67.62042         0.86935
C         67.41498        69.73863         1.25861
C         66.22000        69.03182         0.97734
C         67.42312        71.14610         1.38022
C         66.19908        71.87843         1.23071
C         67.41942        73.97211         1.64851
C         66.19492        73.30323         1.37363
C         68.62037        71.86260         1.65673
C         68.60566        73.25134         1.78288
O         36.57701        47.82532        -2.27728
O         42.27750        59.39635        -2.11046
O         30.61497        69.98578        -1.11131
O         32.54182        71.42194         1.94563
O         48.14677        58.45728         1.82144
O         36.11322        69.52628        -1.21803
O         45.14288        48.97603        -0.14449
O         52.29989        48.97054         0.58977
O         57.05420        58.40545        -1.60526
O         49.52129        71.54376         1.59595
O         25.49142        70.09419        -0.61234
O         50.81970        43.97683         0.91560
O         47.03930        50.45954        -2.85800
O         33.27072        58.77148        -2.79946
O         44.19449        38.96615        -0.07220
O         33.49290        63.53809        -1.94077
O         50.26232        53.36870        -1.96157
O         37.02555        65.02723         1.81789
O         48.85488        64.45015         1.73070
O         40.00604        70.79379        -1.27038
O         38.45621        71.81047         1.76456
O         33.26864        56.85855         0.24292
O         45.79876        67.27098        -1.95481
O         51.71279        58.70619        -1.47593
O         47.89950        65.96804        -1.57487
O         50.52394        49.23179        -2.50946
O         34.86116        66.26695         1.77160
O         44.42564        43.35846        -2.47096
O         60.06624        61.77519        -1.90500
O         37.77869        62.63811        -1.65416
O         36.83530        54.59096        -3.10874
O         40.04616        44.21667        -1.95976
O         42.28796        56.82104        -2.65494
O         54.23759        69.54971         1.61569
O         48.14488        51.88224         0.62595
O         42.26314        67.39285         1.27502
O         54.40500        60.95945        -1.95727
O         39.80376        50.24786        -3.53513
O         33.32654        69.73442        -1.38932
O         43.66633        68.52801        -1.80606
O         39.40374        56.51495        -0.16233
O         40.55969        65.29078        -1.47642
O         57.01249        56.78240         1.61289
O         36.24631        56.69327        -0.07529
O         57.76044        66.06481         1.57376
O         35.37842        49.91681        -2.43005
O         51.38657        55.72033         1.48887
O         37.78500        59.37248        -2.96630
O         44.12577        40.95903        -1.49785
O         61.55901        64.24709        -1.79326
O         35.56877        53.32753        -0.08061
O         58.87880        72.94581        -0.74407
O         43.44398        48.05301        -3.18944
O         48.83501        41.34968        -1.47224
O         43.01770        37.55667         2.19920
O         49.67429        60.92333         1.96773
O         55.97834        51.94677         1.10922
O         34.86293        61.56644         0.69835
O         45.52246        63.23481         1.72309
O         48.56043        45.43477        -2.63891
O         50.00777        41.78261         2.02426
H         50.30739        42.71895         2.11127
O         41.32738        59.99261         1.33551
H         41.11273        60.74308         1.92986
O         38.18002        45.71731        -2.74810
H         38.48011        44.78142        -2.82521
O         43.67375        35.52686         6.39199
H         43.29922        34.93421         5.70861
O         23.53310        72.36985         0.40588
H         23.75360        71.64192        -0.21546
O         46.45542        41.37793        -2.46031
H         45.57953        41.64563        -2.83198
O         52.93582        69.81772        -1.76012
H         52.18143        70.23608        -2.22566
O         28.70210        63.45125        -2.44930
H         29.47584        63.86599        -2.89002
O         30.19123        70.72581         2.50618
H         31.09705        70.79844         2.89062
O         47.51469        38.90838        -1.32792
H         47.14455        39.51785        -2.00951
O         58.88405        68.72208         2.12523
H         58.73855        69.54386         2.63801
O         62.70048        67.16830        -1.68420
H         62.36815        66.34415        -2.10770
O         37.69138        56.97093        -3.45893
H         37.73955        57.90415        -3.82180
O         30.50618        61.24691         0.93350
H         30.49056        60.29555         1.17465
O         49.88257        53.45864         1.66627
H         50.07257        54.18512         2.29996
O         25.83652        67.78733        -1.53966
H         25.35454        68.63374        -1.69387
O         58.57736        67.97090        -1.44810
H         59.41588        68.28568        -1.84709
O         44.01149        73.32232         2.08292
H         43.18010        72.86647         2.33782
O         38.84430        63.00360         1.86688
H         38.17237        63.57155         2.31294
O         27.23463        65.70418        -2.10126
H         27.41894        64.79943        -2.45380
H         23.22474        74.87091         3.58072
H         25.55776        75.04079         2.72793
H         27.87191        75.19495         1.91328
H         30.28446        75.25129         1.36522
H         32.72677        75.30199         0.85356
H         35.21918        75.36097         0.60581
H         37.68540        75.41561         0.32685
H         40.27378        75.41811         0.14898
H         42.77300        75.35155         0.38776
H         45.28979        75.28190         0.30259
H         47.71576        75.26732         0.02897
H         50.19793        75.24141         0.20920
H         52.64984        75.24068         0.36504
H         55.11577        75.21555         0.59689
H         57.38887        75.16275         1.29726
H         60.21248        75.12554         1.44982
H         62.53579        75.11603         1.15553
H         64.96600        75.09937         1.39210
H         67.42163        75.06603         1.75644
H         22.35324        69.05929         2.53536
H         21.28701        71.01204         3.56907
H         21.29394        73.42603         4.13869
H         24.75590        65.07017         1.21097
H         23.54750        67.07534         1.76204
H         26.83131        60.85168        -0.19149
H         25.82697        63.00262         0.59895
H         29.21809        56.55742        -1.14313
H         27.99033        58.70988        -0.92419
H         31.79181        52.27584        -0.93771
H         30.55017        54.33850        -1.13429
H         34.35351        48.12497         0.27087
H         32.93723        50.33894        -0.16725
H         37.30141        44.69685         1.24874
H         36.04379        46.36804         0.71978
H         39.92989        41.05933         3.12926
H         38.59883        42.87224         2.16051
H         42.79362        37.73602         5.48864
H         41.27024        39.42261         4.21980
H         45.98327        34.24378         6.39510
H         45.25467        36.80607         6.66981
H         47.62938        34.38528         4.56635
H         48.70827        35.77362         2.83012
H         49.88077        37.34601         1.38724
H         50.98342        39.42693         1.15016
H         52.12819        41.22258        -0.49865
H         53.82835        43.66255        -0.51442
H         54.83013        45.70663        -0.69762
H         56.04495        47.87695        -0.89008
H         57.16035        49.98672        -1.35071
H         58.56516        52.40864        -0.97308
H         59.74716        54.23478        -0.19651
H         61.05199        56.38864        -0.02155
H         62.28070        58.53243         0.16883
H         63.47199        60.68131         0.22566
H         64.66358        62.79919         0.39812
H         65.91676        64.94169         0.58136
H         67.13116        67.05585         1.01721
H         68.35424        69.18015         1.38480
H         69.56283        71.30829         1.77053
H         69.54248        73.78544         1.99526
