         321
 CSIRO Nanostructure Databank - Neutral Graphene Oxide Data Set
C         30.63402        57.23941        -0.32380
C         30.61913        58.66917        -0.37481
C         29.52647        59.37881        -0.94086
C         30.72187        61.48534        -0.74188
C         29.58459        60.76428        -1.10147
C         32.98200        52.97219         0.30192
C         32.98342        54.38234         0.40074
C         31.82705        55.10905         0.00166
C         32.87268        57.20198         0.77545
C         31.74716        56.50694         0.11173
C         32.86230        58.73693         0.72329
C         31.75468        59.41045         0.04621
C         33.02975        61.51032         0.17821
C         31.83910        60.81608        -0.17015
C         35.11523        48.47234         0.28405
C         35.17126        49.98515         0.41541
C         34.07007        50.77415         0.36309
C         35.32230        52.87852         0.98942
C         34.12769        52.21762         0.56511
C         35.32163        54.28307         1.17543
C         34.17358        55.04663         0.84818
C         35.29983        57.22192         1.26638
C         34.17458        56.50023         0.95029
C         35.26776        58.69801         1.40970
C         34.11958        59.45224         0.92102
C         35.42961        61.54832         0.79570
C         34.18264        60.83982         0.66415
C         37.68118        44.26072        -0.06064
C         37.70111        45.63103         0.05990
C         36.47713        46.37783         0.22889
C         37.70226        48.46898         0.15552
C         36.46196        47.75431         0.27022
C         37.65810        49.93570         0.13813
C         36.47042        50.60617         0.75432
C         37.94327        52.72267         1.16754
C         36.55261        52.05601         1.14075
C         37.86312        54.26113         1.23225
C         36.58081        55.00465         1.52615
C         37.83012        57.23395         1.11219
C         36.58846        56.54730         1.69697
C         37.85454        58.69190         1.18205
C         36.61903        59.46358         1.43584
C         37.88594        61.56711         0.94009
C         36.62321        60.89673         1.05048
C         40.18147        40.05677         0.66788
C         40.15984        41.39064         0.07849
C         38.97967        42.08576         0.08281
C         40.18307        44.21247         0.08613
C         38.93161        43.50561        -0.42219
C         40.17047        45.69308        -0.20759
C         38.95861        46.37036        -0.07132
C         40.17460        48.53720        -0.14022
C         38.92465        47.80755        -0.05561
C         40.19214        49.95581        -0.14751
C         38.93424        50.70558        -0.07593
C         40.15930        52.82459        -0.00603
C         38.98241        52.14455         0.23020
C         40.10019        54.31634        -0.08392
C         38.93593        55.05102         0.53653
C         40.12217        57.26418         0.15968
C         38.93233        56.53818         0.66577
C         40.21668        58.72154         0.46951
C         39.01765        59.40792         0.97327
C         40.35849        61.50694         0.72347
C         39.07870        60.85802         0.94660
C         42.81385        35.89417         0.98698
C         42.72206        37.23356         0.49312
C         41.47731        37.87007         0.80963
C         42.75183        40.00270        -0.76128
C         41.02856        39.06021         0.20796
C         42.65847        41.38807        -0.66708
C         41.39572        42.08883        -0.40321
C         42.55254        44.24655        -0.98781
C         41.40469        43.46333        -0.40261
C         42.64570        45.69776        -0.55140
C         41.40931        46.40627        -0.31215
C         42.69282        48.52504         0.04421
C         41.39703        47.81009        -0.20826
C         42.66015        49.98294        -0.32003
C         41.40910        50.70161        -0.27238
C         42.59709        52.86948        -0.60547
C         41.35933        52.11395        -0.35136
C         42.65597        54.33067        -0.34796
C         41.37150        55.06396        -0.39057
C         42.69695        57.24289         0.00447
C         41.39629        56.54499        -0.18337
C         42.73864        58.57886         0.32741
C         41.54196        59.32890         0.85491
C         42.81658        61.48476         0.39957
C         41.55033        60.82468         0.61180
C         45.27041        33.23494         1.85747
C         44.04773        33.87472         1.65410
C         45.22116        35.71578         0.47058
C         43.98114        35.14019         1.01610
C         45.20246        37.17227        -0.00322
C         43.89674        37.89486        -0.02995
C         45.17812        39.95938        -0.60477
C         43.94353        39.25039        -0.48042
C         45.12216        41.37874        -0.92203
C         43.88950        42.11829        -0.77638
C         45.06387        44.25353        -0.99596
C         43.86882        43.52725        -0.86735
C         45.11454        45.69288        -0.95550
C         43.85952        46.39673        -0.68521
C         45.10305        48.52701        -0.66109
C         43.91167        47.81283        -0.48781
C         45.12324        49.93908        -0.54566
C         43.87232        50.63912        -0.46097
C         45.13833        52.78775        -0.26012
C         43.88276        52.09661        -0.65148
C         45.12965        54.28102        -0.18797
C         43.84497        55.01950        -0.33321
C         45.14042        57.11170        -0.35996
C         43.91083        56.47226        -0.24994
C         45.22475        58.56674        -0.12104
C         44.01686        59.31223         0.35669
C         45.27283        61.46187         0.02220
C         44.00394        60.79800         0.28254
C         46.48064        33.85509         1.52451
C         47.67460        35.84515         0.69480
C         46.49740        35.12561         0.90767
C         47.70608        37.23962         0.41169
C         46.46761        37.94660         0.12050
C         47.57546        40.13675         0.06824
C         46.39650        39.32734        -0.17932
C         48.13824        41.09489        -0.73941
C         46.23123        42.11721        -1.37349
C         47.47222        44.25747        -1.40593
C         46.26342        43.53910        -1.29585
C         47.59634        45.64866        -1.13195
C         46.33468        46.36936        -1.04810
C         47.63377        48.55603        -0.91594
C         46.32281        47.86562        -1.25549
C         47.64132        49.91778        -0.70268
C         46.37588        50.66388        -0.58639
C         47.64312        52.78120        -0.04629
C         46.39561        52.03879        -0.43105
C         47.61623        54.26414        -0.35941
C         46.41457        54.98749        -0.37498
C         47.62957        57.11841        -0.52694
C         46.39929        56.40532        -0.48248
C         47.66120        58.56204        -0.58092
C         46.37040        59.32895        -0.71555
C         47.52451        61.30372        -1.17167
C         46.40335        60.77993        -0.31896
C         49.03683        37.79198         0.44487
C         50.52317        39.88030         0.59683
C         49.35237        39.12245         0.75570
C         50.43255        41.29943         0.34960
C         49.33660        41.83377        -0.42535
C         50.31806        44.10789        -0.36103
C         49.43777        43.17159        -0.88947
C         50.09677        45.58595        -0.45361
C         48.86276        46.28156        -0.97524
C         50.19667        48.51832        -0.99165
C         48.88893        47.77995        -1.31051
C         50.16802        49.94372        -0.45668
C         48.87743        50.69743        -0.64507
C         50.13547        52.82056        -0.41223
C         48.89304        52.06197        -0.47787
C         50.09682        54.24488        -0.31807
C         48.84919        54.96262        -0.38744
C         50.10558        57.08012        -0.45641
C         48.85656        56.38535        -0.46367
C         50.11335        58.51693        -0.76389
C         48.84778        59.25594        -0.71214
C         50.04225        61.40742        -0.70589
C         48.86925        60.69762        -0.83382
C         51.51565        42.16820         0.59864
C         52.60800        44.36449         0.55563
C         51.46517        43.55578         0.32041
C         52.63333        45.72493         0.22034
C         51.35556        46.39674        -0.14897
C         52.64238        48.61269        -0.16838
C         51.45426        47.81601        -0.59959
C         52.65910        49.99435        -0.32564
C         51.43411        50.70926        -0.86842
C         52.57611        52.87542        -0.23313
C         51.37622        52.16155        -0.45576
C         52.52955        54.26540        -0.04112
C         51.31191        54.96885        -0.17498
C         52.54598        57.15081        -0.04253
C         51.31128        56.41194        -0.22921
C         52.57534        58.57205        -0.10690
C         51.40003        59.29927        -0.61138
C         52.46163        61.44260        -0.09511
C         51.31552        60.76720        -0.44210
C         53.79728        46.49123         0.37742
C         55.02750        48.63217         0.40324
C         53.83482        47.91073         0.21706
C         55.06374        50.04173         0.26178
C         53.84784        50.73360        -0.05375
C         55.04382        52.86908         0.05728
C         53.85065        52.16233        -0.10040
C         55.03218        54.36852        -0.13887
C         53.76325        54.97042         0.45028
C         54.93083        57.16410         0.52975
C         53.74339        56.46649         0.26620
C         54.91867        58.59236         0.61554
C         53.72064        59.29264         0.27155
C         54.84334        61.45617         0.51429
C         53.70105        60.75444         0.22632
C         56.26496        50.78556         0.41517
C         57.49177        52.94788         0.42798
C         56.27841        52.18471         0.28998
C         57.49887        54.34220         0.51060
C         56.24279        55.08111         0.42315
C         57.37776        57.13628         1.26917
C         56.17413        56.42260         0.70342
C         57.34294        58.64349         1.10101
C         56.10984        59.30695         0.93947
C         57.37180        61.48958         0.85963
C         56.05494        60.80317         1.10643
C         58.70076        55.09721         0.63199
C         59.83342        57.26703         0.76214
C         58.67728        56.48912         0.83412
C         59.80363        58.68771         0.91887
C         58.55459        59.36237         1.15768
C         59.79306        61.54922         0.96955
C         58.56433        60.84321         1.45247
C         60.97279        59.44344         0.71205
C         60.93407        60.86033         0.66333
O         47.36817        41.46837        -1.86968
O         50.94806        58.85184        -1.93294
O         45.08020        53.45804         1.07018
O         37.46365        54.52953         2.60897
O         35.88136        59.19931         2.64692
O         46.21407        59.54193        -2.18289
O         41.29052        55.96158        -1.53666
O         37.96524        50.45977        -1.20668
O         41.59882        39.29594        -1.06589
O         32.46147        57.96847         1.93541
O         51.17864        48.15047        -2.01272
O         50.34496        46.21468         0.88721
O         48.56546        43.58204        -1.90958
O         45.03803        58.84010         1.32016
O         43.27269        52.54861        -1.89740
O         45.22798        36.04750        -0.95757
O         48.25055        39.86049         1.26218
O         36.51813        50.99282         2.16671
O         39.94101        58.29164        -0.89464
O         38.95270        54.70960        -0.90466
O         58.54661        60.95692         2.98652
H         59.05741        60.19196         3.33139
O         42.83870        48.49711         1.53162
H         43.66830        48.97604         1.74640
O         51.49304        50.72014        -2.31791
H         52.32647        51.16048        -2.58453
O         47.69245        52.71616         1.43121
H         46.81078        53.04735         1.73945
O         55.89491        61.05194         2.56635
H         56.79811        60.96587         2.98389
O         40.16419        44.10978         1.54143
H         40.89728        44.65711         1.89302
O         47.11810        60.71450        -2.47677
O         41.60205        59.14457         2.30873
H         42.47705        59.46449         2.61678
O         57.31442        56.94353         2.72910
H         57.22415        55.97970         2.88962
O         46.14691        48.04356        -2.70267
H         47.02161        47.86093        -3.12470
O         36.64614        56.80659         3.12127
H         37.23303        56.12435         3.51987
O         48.82102        47.74830        -2.78467
H         49.75475        47.76090        -3.11013
O         42.26050        44.30281        -2.43647
H         41.28339        44.33909        -2.53951
O         50.23391        49.75259         0.99168
H         49.97308        50.59177         1.42873
O         55.00561        54.61432        -1.57291
H         55.84267        54.27368        -1.95166
O         39.02715        43.49528        -1.88416
H         38.27855        42.96689        -2.23193
O         38.56768        52.33925         2.42981
H         37.92862        52.54519         3.14798
O         53.82935        54.72328         1.88870
H         53.02466        55.10348         2.29890
O         34.38264        48.10447        -0.89589
H         34.89910        48.39126        -1.67715
H         29.77694        56.69405        -0.74568
H         28.63403        58.82371        -1.26211
H         30.76537        62.57221        -0.89724
H         28.72557        61.29307        -1.53818
H         32.06618        52.46279        -0.03199
H         30.96791        54.55158        -0.39938
H         33.08101        62.59598         0.00791
H         34.51875        48.08029         1.15222
H         33.08911        50.33396         0.12854
H         35.44339        62.62228         0.55668
H         36.72013        43.72256        -0.03245
H         35.52790        45.82247         0.26263
H         37.89247        62.65524         0.77532
H         39.52659        39.86468         1.53095
H         38.05486        41.59710         0.42592
H         40.35724        62.60354         0.61744
H         41.90383        35.45428         1.42321
H         40.86521        37.40834         1.59949
H         42.81974        62.58346         0.31999
H         45.28829        32.25213         2.34901
H         43.11833        33.41215         2.01631
H         45.28588        62.56369         0.04133
H         47.43407        33.37057         1.77984
H         48.63013        35.35457         0.93686
H         47.55422        62.41083        -1.29152
H         49.86567        37.08242         0.29725
H         51.50851        39.39465         0.54651
H         50.01842        62.50715        -0.76252
H         52.41790        41.76879         1.08299
H         53.51914        43.89185         0.94980
H         52.44746        62.54028        -0.01130
H         54.71661        45.97969         0.69999
H         55.95100        48.09107         0.65696
H         54.82286        62.55691         0.49767
H         57.20049        50.25157         0.63882
H         58.44220        52.40256         0.52927
H         57.37108        62.59192         0.81204
H         59.66754        54.58644         0.50395
H         60.79215        56.78754         0.51092
H         59.77429        62.64744         0.92275
H         61.91323        58.92062         0.48674
H         61.84338        61.40367         0.36691
