         349
 CSIRO Nanostructure Databank - Neutral Graphene Oxide Data Set
C          1.17769         3.37201         0.33195
C          0.02759         4.02779        -0.00976
C          1.09617         6.23450         0.19561
C         -0.04988         5.44426        -0.02196
C          1.03790         7.68322         0.24153
C         -0.13649         8.44128         0.18303
C          1.01909        10.63873         0.32974
C         -0.14872         9.84509         0.23143
C          0.99994        12.04735         0.42518
C         -0.20217        12.83151         0.48734
C          1.00601        14.81916         1.45823
C         -0.20082        14.14195         0.85439
C          0.99375        16.37789         1.31775
C         -0.11490        17.09744         0.64165
C          1.15717        19.21772         0.42569
C         -0.01879        18.39766         0.24974
C          1.22659        20.56731         0.02085
C          0.03646        21.30403        -0.28638
C          1.34272        23.23968        -0.99374
C          0.08877        22.59767        -0.72713
C          1.38448        24.62892        -1.42860
C          0.25242        25.30432        -1.91992
C          1.48120        27.41560        -2.02540
C          0.31083        26.65181        -2.25832
C          1.59056        28.76318        -2.55476
C          3.63003         3.50125         0.06558
C          2.42140         4.10730         0.72748
C          3.57045         6.31779         0.36191
C          2.35111         5.58880         0.44461
C          3.56288         7.69368         0.21747
C          2.29985         8.40669         0.45964
C          3.59482        10.60754         0.25258
C          2.30519         9.91394         0.51179
C          3.58033        12.09791         0.22177
C          2.25909        12.82985         0.41921
C          3.56748        14.85385         1.18412
C          2.28848        14.19627         0.93441
C          3.58438        16.36025         1.41088
C          2.29131        17.13917         1.39576
C          3.68290        19.34331         0.88628
C          2.33415        18.60677         1.03561
C          3.71639        20.59088         0.12787
C          2.51081        21.22847        -0.18786
C          3.80579        23.18111        -1.29939
C          2.53320        22.54046        -0.76896
C          3.79860        24.66329        -0.96499
C          2.60705        25.36646        -1.24113
C          3.78116        27.59856        -1.11835
C          2.59978        26.78941        -1.43673
C          3.88511        29.00619        -1.70359
C          2.74644        29.47229        -2.51040
C          6.06689         3.52041        -0.26660
C          4.84145         4.16616         0.03574
C          6.09376         6.34579         0.18386
C          4.87014         5.57207         0.60378
C          6.05209         7.71593        -0.03441
C          4.75603         8.45023        -0.29933
C          5.97803        10.75373        -0.36895
C          4.75849         9.93687         0.04339
C          6.04954        12.09918         0.32873
C          4.85007        12.78590         0.54807
C          6.07700        14.83023         1.02384
C          4.85227        14.15993         0.89060
C          6.11368        16.30402         0.89385
C          4.82536        17.07677         0.96597
C          6.15794        19.14057         0.79557
C          4.92034        18.53946         0.96128
C          6.22974        20.50783         0.34957
C          5.04118        20.96616        -0.49858
C          6.29217        23.24982        -0.40276
C          5.18758        22.43768        -1.04336
C          6.30824        24.66087        -0.55364
C          5.02358        25.37653        -0.61802
C          6.33965        27.55169        -0.96277
C          5.04112        26.90530        -0.70091
C          6.38197        28.92051        -1.48021
C          5.22873        29.57416        -1.88344
C          8.55149         3.49853        -0.22936
C          7.32078         4.18033        -0.12411
C          8.55267         6.32006         0.02292
C          7.31743         5.61560         0.05578
C          8.54016         7.71669         0.01879
C          7.30258         8.42708        -0.26192
C          8.51559        10.69155         0.06282
C          7.30291         9.99058        -0.32130
C          8.53330        12.07279         0.34258
C          7.28589        12.76442         0.51445
C          8.55465        14.83030         1.02352
C          7.31002        14.13780         0.88437
C          8.51794        16.19636         1.68064
C          7.36768        17.03653         1.14869
C          8.55044        19.22703         1.60628
C          7.38045        18.39987         1.10017
C          8.64313        20.58033         0.92174
C          7.44023        21.20657         0.42026
C          8.68131        23.33984         0.18863
C          7.47728        22.59743         0.02585
C          8.72316        24.72482        -0.14960
C          7.50292        25.40570        -0.48419
C          8.80231        27.47275        -1.06763
C          7.50469        26.82087        -0.79231
C          8.84892        28.93820        -1.28431
C          7.65339        29.58784        -1.56783
C         11.03637         3.47743        -0.12666
C          9.82176         4.15989        -0.13663
C         10.99456         6.34673        -0.22805
C          9.81600         5.62113        -0.06101
C         11.04417         7.76715        -0.12944
C          9.78965         8.45102         0.19657
C         11.04090        10.67205         0.04450
C          9.77311         9.95778         0.23317
C         11.01433        12.11340         0.18857
C          9.76599        12.78550         0.44264
C         11.02670        14.92419         0.76914
C          9.76318        14.18342         0.74402
C         11.06907        16.24225         1.15310
C          9.85480        16.94025         1.63430
C         11.13623        19.14678         1.28781
C          9.86845        18.44550         1.62085
C         11.11072        20.59809         1.22625
C          9.84404        21.27733         0.95376
C         11.03153        23.44934         0.89280
C          9.86766        22.69256         0.64830
C         11.07857        24.81935         0.53561
C          9.95198        25.42544        -0.04240
C         11.29202        27.56478        -0.43792
C         10.05742        26.77355        -0.63145
C         11.30522        28.96655        -0.85912
C         10.10562        29.59568        -1.25700
C         13.63522         3.55695        -0.06792
C         12.31324         4.23878         0.16031
C         13.48973         6.37870        -0.73177
C         12.24665         5.60516        -0.48490
C         13.46658         7.86167        -0.62907
C         12.22755         8.51759        -0.25464
C         13.53043        10.68083         0.03780
C         12.21532         9.94850        -0.10431
C         13.41262        12.12734        -0.45132
C         12.20555        12.83695         0.10356
C         13.46069        14.93774         0.23183
C         12.25461        14.23974         0.36076
C         13.45545        16.44434         0.31753
C         12.40360        16.94986         1.31345
C         13.59641        19.16134         1.17995
C         12.33011        18.46110         1.22120
C         13.57534        20.59337         1.59505
C         12.28248        21.30275         1.40306
C         13.46851        23.56165         1.67949
C         12.20906        22.77697         1.48570
C         13.50341        25.04381         1.42612
C         12.27085        25.66459         0.80798
C         13.75050        27.61306        -0.01476
C         12.38408        26.98171         0.13659
C         13.68338        29.11694        -0.18353
C         12.49400        29.70691        -0.67481
C         16.09745         3.66691        -0.05666
C         14.83476         4.29266        -0.16313
C         15.92161         6.44498        -0.77202
C         14.79710         5.72057        -0.49959
C         15.82080         7.80833        -1.43477
C         14.62472         8.56773        -0.87901
C         15.81969        10.72919        -0.92679
C         14.69694         9.99478        -0.64753
C         15.97198        12.10404        -0.31507
C         14.69227        12.89090        -0.26759
C         15.93672        15.05726        -0.33948
C         14.68651        14.24759        -0.06371
C         15.98717        16.41830         0.32155
C         14.80754        17.08100         0.59552
C         16.05643        19.25316         0.77800
C         14.79120        18.48715         0.94456
C         16.11776        20.72113         1.17330
C         14.86648        21.37306         1.77270
C         15.84937        23.68702         1.98790
C         14.77746        22.87477         1.73789
C         15.99904        25.07432         1.55177
C         14.80929        25.73922         1.30199
C         16.08348        27.83479         0.83464
C         14.73757        27.22748         1.10534
C         16.06874        29.21632         0.47386
C         14.83282        29.84911         0.07886
C         18.67188         3.81560        -0.12177
C         17.33074         4.43815        -0.03371
C         18.44257         6.50427        -1.14718
C         17.24404         5.90573        -0.44059
C         18.33642         8.01291        -1.23927
C         17.11206         8.59931        -1.35265
C         18.20181        10.86725        -1.93707
C         16.99688        10.07091        -1.54397
C         18.16154        12.40877        -1.77146
C         17.16083        12.92791        -0.74295
C         18.55064        14.82749         0.00169
C         17.20501        14.23385        -0.34388
C         18.54215        16.32725         0.32356
C         17.26592        17.11550         0.39109
C         18.64308        19.20337         0.73089
C         17.31302        18.47597         0.59162
C         18.55845        20.69649         0.42930
C         17.46390        21.39176         1.16940
C         18.83532        23.52649         1.34256
C         17.74589        22.59605         1.72271
C         18.57100        24.99508         1.17623
C         17.31407        25.68988         1.30308
C         18.50868        27.84974         0.82401
C         17.28614        27.11504         0.98930
C         18.49954        29.27022         0.64870
C         17.26841        29.93969         0.45841
C         19.79011         4.57246        -0.26545
C         20.81747         6.83238        -0.48247
C         19.73801         5.99667        -0.55716
C         20.74830         8.19900        -0.93963
C         19.57298         8.79075        -1.32327
C         20.74985        10.95599        -2.02600
C         19.52352        10.08912        -2.14303
C         20.74011        12.29321        -1.94166
C         19.52800        13.10598        -1.70260
C         20.99045        15.01633        -0.64840
C         19.66398        14.41948        -0.97105
C         21.06238        16.26941        -0.17753
C         19.84877        17.04482         0.20962
C         21.07545        19.27642         0.09251
C         19.77052        18.53372        -0.10746
C         21.10395        20.61177         0.20946
C         19.85699        21.41472         0.23435
C         20.85430        23.74035        -0.19492
C         19.97963        22.87213         0.59058
C         20.80368        25.08064         0.03749
C         19.72439        25.71837         0.74630
C         20.95294        27.89256         0.70964
C         19.74754        27.16267         0.78051
C         20.93742        29.29034         0.64538
C         19.73134        29.97523         0.58484
O         19.45153        14.39610        -2.40415
O         15.86199        20.33671        -0.22948
O          3.69576        15.50407         2.56475
O         17.37396         5.57278         0.95719
O         17.22268        10.46334        -2.96338
O         12.54123        25.77662         2.26869
O         19.36499        16.63276         1.53672
O          2.33778         9.14897         1.76835
O          2.91781        12.67426        -0.93120
O          5.86719        22.35066        -2.28886
O         20.08352        23.16413         2.02750
O          7.43759         9.18866        -1.54282
O         18.92585        21.16526        -0.90162
O          4.87965        26.24998         0.58495
O          2.91256        19.39627         2.13085
O          1.44521        16.97920         2.57915
O          3.51213        28.77696        -0.29176
O          9.63220        26.75379        -2.05168
O         16.90844        23.12753         2.69510
O          5.36699        16.62019        -0.34319
O         12.73509         5.76268        -1.85479
O         14.25366        20.74941         2.92495
O         10.07205        17.69289         2.89345
O         12.61494        23.24860         2.83495
O          9.79433         9.16817         1.50449
O         12.29153         4.53326         1.61228
H         12.24976         3.67770         2.08968
O         19.41299        18.58517        -1.50296
H         19.24685        19.53391        -1.72974
O         19.54816         9.61068        -3.51488
H         18.60718         9.56308        -3.81276
O         16.29914        11.80098         1.09475
H         15.47356        11.44343         1.51412
O         13.06153        16.91636        -1.00295
H         13.78793        16.67963        -1.62264
O         18.37364         5.98917        -2.51012
H         19.01816         6.49033        -3.05317
O          0.95409        14.51258         2.87856
H          1.44520        15.23801         3.33866
O         14.30153        27.04655        -1.24161
H         13.74191        27.34452        -1.98983
O         14.27150        27.81432         2.34928
H         13.50745        27.26539         2.66113
O          3.61401        23.17531        -2.74529
H          4.51706        22.90594        -3.09945
O         13.20397        12.03064        -1.89999
H         13.11988        12.94162        -2.25297
O         18.91526        14.12662         1.22849
H         19.28199        14.79716         1.85222
O          4.97097         5.43550         2.05011
H          4.21200         4.86387         2.33958
O          5.73402        11.05622        -1.77993
H          6.56154        11.41507        -2.16452
O         12.87714        16.62428         2.64441
H         12.20914        16.96527         3.27981
O         15.56998         7.59435        -2.85287
H         14.73608         7.08335        -2.93710
O         15.79319        15.41136        -1.78174
H         16.33174        14.77350        -2.31025
O         17.52886        12.93539        -2.97667
H         17.03049        12.18763        -3.39024
O          8.20196        15.91841         3.07350
H          8.67752        16.58956         3.61591
O          4.59937         8.43981        -1.76178
H          5.21900         9.12078        -2.12392
O         13.80760        10.73028         1.47225
H         13.65358         9.83733         1.84746
O          8.21874        19.54978         2.98791
H          8.71304        18.92215         3.56304
O          2.60893         3.94849         2.20521
H          1.81814         4.33270         2.64170
O         19.00429        19.18038         2.13163
H         19.10428        18.23250         2.39455
O          5.08929        20.11296        -1.67486
H          5.54580        20.69122        -2.35845
H          1.19939         2.27313         0.36658
H         -0.87438         3.45077        -0.26101
H         -1.01556         5.92058        -0.23601
H         -1.10415         7.92935         0.08018
H         -1.12380        10.34564         0.15250
H         -1.15967        12.35737         0.22476
H         -1.16557        14.66692         0.89848
H         -1.04675        16.55661         0.42733
H         -0.88786        18.84548        -0.25351
H         -0.94245        20.84356        -0.09695
H         -0.84722        23.15039        -0.88534
H         -0.68301        24.75481        -2.09217
H         -0.56415        27.13980        -2.71164
H          0.73008        29.15476        -3.11757
H          3.54630         2.48761        -0.35628
H          2.84045        30.42385        -3.05396
H          6.05387         2.44817        -0.51622
H          5.31261        30.56597        -2.35273
H          8.53979         2.40589        -0.36248
H          7.66332        30.65537        -1.83419
H         11.05018         2.37742        -0.17370
H         10.13369        30.67266        -1.48321
H         13.70283         2.47663         0.14053
H         12.47988        30.79108        -0.86544
H         16.15607         2.56874        -0.01658
H         14.84046        30.93405        -0.10866
H         18.75351         2.72942         0.03462
H         17.26171        31.01695         0.23686
H         20.78135         4.09797        -0.19627
H         21.78303         6.45424        -0.11509
H         21.69195         8.76013        -0.99515
H         21.71062        10.45088        -2.20524
H         21.69719        12.83166        -2.00567
H         21.91343        14.48119        -0.91529
H         22.04575        16.73302        -0.00806
H         22.02195        18.71686         0.08129
H         22.05802        21.14474         0.33664
H         21.56513        23.30532        -0.91051
H         21.52416        25.73312        -0.47540
H         21.91706        27.36682         0.73426
H         21.88641        29.84315         0.61139
H         19.71691        31.06934         0.47960
