         236
 CSIRO Nanostructure Databank - Neutral Graphene Oxide Data Set
C        -10.96141         0.84341         0.56838
C         -9.73495         1.50362         0.10227
C         -8.62987         0.71365        -0.23609
C         -7.46828         1.32469        -0.91646
C         -6.22101         0.44268        -1.07651
C         -4.90224         1.26541        -1.06624
C         -3.64976         0.65543        -0.52454
C         -2.45419         1.33614        -0.43568
C         -1.25649         0.66216         0.00850
C         -0.05589         1.42761         0.43425
C          1.26160         0.68517         0.49921
C          2.54127         1.44387         0.49597
C          3.80376         0.70454         0.12061
C          4.99059         1.52649        -0.14464
C          6.22925         0.86458        -0.58115
C          7.50265         1.52450        -0.20447
C          8.69376         0.80377        -0.15914
C          9.89264         1.44838         0.31456
C         11.03498         0.63026         0.69337
C         -9.66859         2.91089         0.02501
C         -8.54656         3.61201        -0.50705
C         -7.44794         2.82324        -1.14175
C         -6.17487         3.57366        -1.63071
C         -4.88150         2.74593        -1.38162
C         -3.54216         3.51735        -1.28311
C         -2.47114         2.84816        -0.37325
C         -1.12136         3.51555        -0.49149
C         -0.07425         2.96026         0.43054
C          1.28400         3.59928         0.19784
C          2.49278         2.90981         0.31511
C          3.73895         3.60610         0.26268
C          4.98859         2.88879         0.12983
C          6.24019         3.61297         0.21413
C          7.46836         2.91130         0.14463
C          8.70243         3.60105         0.43051
C          9.89478         2.82032         0.54262
C         -8.49320         4.98989        -0.47617
C         -7.42286         5.78023        -1.19121
C         -6.10524         5.01856        -1.14209
C         -4.94358         5.66372        -0.88248
C         -3.63193         4.94054        -0.65895
C         -2.35213         5.72320        -1.01286
C         -1.07009         4.97345        -0.72792
C          0.11044         5.74342        -0.26646
C          1.29609         5.02403         0.06446
C          2.51380         5.74058         0.24919
C          3.75222         5.01417         0.31756
C          4.99477         5.69103         0.52659
C          6.22217         5.00846         0.51648
C          7.47558         5.73407         0.69539
C          8.69082         4.98655         0.65441
C         -7.34345         7.19102        -0.65785
C         -6.19095         7.80081        -0.28347
C         -4.91860         7.04592        -0.31737
C         -3.62114         7.79890        -0.22970
C         -2.43872         7.24484        -1.00836
C         -1.09323         7.92868        -0.66569
C          0.09675         7.14473        -0.23470
C          1.27157         7.85602         0.17077
C          2.47105         7.15270         0.34781
C          3.75806         7.92912         0.46210
C          4.93847         7.09730         0.91822
C          6.24139         7.85771         1.12177
C          7.47574         7.12361         0.87394
C         -6.12466         9.20746         0.08374
C         -4.95337         9.89268         0.17421
C         -3.65614         9.28072        -0.06142
C         -2.50183        10.00666        -0.09122
C         -1.16221         9.39000        -0.26171
C          0.00293         9.98615         0.38312
C          1.23690         9.30587         0.44604
C          2.39061         9.97323         0.87888
C          3.62863         9.22173         1.29613
C          4.94403         9.97723         1.14633
C          6.12862         9.34100         1.05648
C        -10.99989        -0.46979         0.86647
C         -9.72436        -1.27755         0.87221
C         -8.76877        -0.78874        -0.23860
C         -7.44481        -1.48503        -0.01800
C         -6.25643        -0.77343        -0.16791
C         -4.99420        -1.40116         0.26398
C         -3.68985        -0.69606         0.06077
C         -2.44362        -1.48162         0.08603
C         -1.22822        -0.72571         0.12067
C          0.03177        -1.44026         0.42235
C          1.31304        -0.74686         0.19687
C          2.49390        -1.44767        -0.12280
C          3.76158        -0.72825        -0.29320
C          4.91617        -1.36768        -0.68044
C          6.18258        -0.60362        -0.89151
C          7.48369        -1.36022        -0.93419
C          8.75118        -0.61427        -0.58154
C          9.96147        -1.43869        -0.12486
C         11.02815        -0.72097         0.60288
C         -9.87724        -2.76931         0.78779
C         -8.71732        -3.55785         0.62600
C         -7.47201        -2.83123         0.41474
C         -6.21671        -3.55392         0.60159
C         -4.94734        -2.86474         0.37330
C         -3.75902        -3.56967         0.24469
C         -2.48600        -2.87487         0.18811
C         -1.25590        -3.64546         0.14939
C          0.01502        -2.93204         0.41035
C          1.30934        -3.64178         0.18019
C          2.48466        -2.86635        -0.22782
C          3.59949        -3.57453        -0.86796
C          4.90995        -2.80889        -1.06117
C          6.16515        -3.60293        -0.91730
C          7.45978        -2.86554        -0.85911
C          8.63954        -3.57678        -0.30165
C          9.78750        -2.88225         0.06610
C         -8.71592        -4.97163         0.67559
C         -7.51405        -5.77386         0.23380
C         -6.22604        -5.06011         0.57786
C         -4.95615        -5.74810         0.26832
C         -3.78779        -5.01488         0.12330
C         -2.54202        -5.71284        -0.18819
C         -1.26886        -4.99233        -0.09966
C         -0.04942        -5.74783        -0.57318
C          1.26783        -5.10135        -0.13401
C          2.49682        -5.77295        -0.63619
C          3.63264        -5.06574        -0.85341
C          4.90671        -5.71251        -1.37096
C          6.15499        -4.97376        -0.88340
C          7.36171        -5.70806        -0.48095
C          8.52744        -4.97464        -0.12045
C         -7.41000        -7.21181         0.71470
C         -6.20614        -7.85887         0.77013
C         -4.94059        -7.17848         0.45360
C         -3.73207        -7.84692         0.55563
C         -2.49723        -7.21934         0.09596
C         -1.15902        -7.81195         0.54865
C         -0.03318        -7.20253        -0.23506
C          1.12395        -7.99500        -0.76613
C          2.47616        -7.26606        -0.41087
C          3.66275        -7.99246        -1.01180
C          4.95303        -7.23671        -1.16725
C          6.21842        -7.93118        -0.71856
C          7.35843        -7.09394        -0.33395
C         -6.10041        -9.28359         1.09409
C         -4.91786        -9.91415         1.25857
C         -3.60426        -9.17350         1.26309
C         -2.40547        -9.95472         0.77359
C         -1.21164        -9.32987         0.47386
C          0.00044       -10.03694         0.22937
C          1.19685        -9.40864        -0.19545
C          2.42656       -10.05437        -0.13295
C          3.67297        -9.46449        -0.66243
C          4.97749       -10.04927        -0.28145
C          6.11527        -9.32580        -0.22595
O         -0.79242         8.95467        -1.65085
O         -4.36303        -0.67048         1.40019
O          4.86598        -5.51879        -2.80481
H          5.49553        -6.16598        -3.19696
O         -3.63823         4.84625         0.75637
O         -6.21886        -4.38586         1.85588
O         -9.03330        -0.97456         2.12456
H         -9.54427        -1.37069         2.86072
O         -2.94753         3.02051         0.99741
H         -2.16479         3.28330         1.56914
O          9.82406        -0.93075        -1.50443
O         -9.34053        -1.17462        -1.50716
H         -8.75096        -0.82991        -2.21311
O         -7.83248         5.90445        -2.58731
H         -7.43966         5.13824        -3.07621
O         -2.56747        -6.71040        -1.26805
O          5.44775         7.31286         2.26880
O         -6.30697         3.68884        -3.06999
H         -6.77467         2.87197        -3.37119
O          5.83357        -7.83129        -2.15873
O         -0.01671        -2.21285         1.68952
O         -0.44993         3.34735         1.81543
H         -0.02604         2.67405         2.40411
O         -6.31722        -0.17420        -2.39182
H         -6.00138         0.49593        -3.04274
O          4.01961        -3.05211        -2.18555
O          6.11527         0.37930        -1.98344
O          3.41432         8.91854         2.69604
H          4.18498         8.37099         2.99079
O         -4.11961         7.08215         0.92872
O         -2.77693         7.60060        -2.36803
H         -2.12353         7.15255        -2.95124
O          3.46936        -8.96971        -2.06339
O          1.46537        -4.71259         1.24612
O          7.66322        -2.15806        -2.13788
O         -7.91407         1.92944        -2.20747
O         -1.00100        -7.45072         1.95414
H         -1.70087        -7.93975         2.46013
O         -3.06775         3.62837        -2.60849
H         -3.47511         2.91634        -3.15031
O          4.09807         8.32577        -0.90068
H          3.31999         8.78286        -1.28580
O          2.66430        -7.41067         1.02403
H          2.07871        -6.76901         1.48690
O         -0.03575        -5.58291        -2.02482
H         -0.67255        -6.23334        -2.39831
O         -7.55061        -5.83011        -1.23542
H         -8.39814        -6.24569        -1.49940
O         -3.31108        -8.84955         2.68440
H         -4.08735        -8.36583         3.04131
O          3.41633         0.93446         1.54841
O          0.98025        -8.07938        -2.20109
H          1.78236        -8.54581        -2.54712
O         -4.70367         1.75379        -2.45131
O          0.45539         0.94654         1.72262
O         -1.50526         5.34421        -2.12347
H         11.85872        -1.30992         1.02020
H         11.88098         1.14056         1.17779
H         10.82334         3.31287         0.86820
H          9.64035         5.50690         0.84969
H          8.42538         7.67691         0.81903
H          7.05990         9.91928         0.94946
H          4.91817        11.07824         1.13029
H          2.31582        11.04245         1.13295
H         -0.07102        11.00953         0.78064
H         -2.54283        11.09487         0.07557
H         -4.97105        10.96856         0.40451
H         -7.07661         9.73809         0.23501
H         -8.28141         7.76778        -0.67289
H         -9.32145         5.53954        -0.00280
H        -10.52259         3.50424         0.38407
H        -11.87036         1.45946         0.64511
H        -11.93577        -0.93839         1.20912
H        -10.86259        -3.24376         0.91594
H         -9.67350        -5.49512         0.82248
H         -8.33536        -7.77140         0.92847
H         -7.03854        -9.85448         1.17682
H         -4.89986       -10.98924         1.49442
H         -2.46942       -11.05338         0.74585
H          0.02074       -11.11931         0.43533
H          2.48786       -11.04895         0.33629
H          4.97399       -11.08114         0.10308
H          7.03433        -9.78883         0.16520
H          8.25019        -7.58686         0.08159
H          9.39700        -5.52966         0.26240
H         10.60224        -3.43434         0.55976
