         600
 CSIRO Nanostructure Databank - Neutral Graphene Oxide Data Set
C         22.98148        27.48033         0.81845
C         22.99212        28.83071         0.58111
C         23.01057        31.68671        -0.01586
C         22.99832        32.96165        -0.47461
C         23.01577        35.91254        -1.18506
C         23.02005        37.27081        -1.09143
C         23.03036        40.18564        -0.84048
C         23.03165        41.55654        -0.74720
C         23.03162        44.47568        -0.76295
C         23.03478        45.84893        -0.82065
C         25.39706        24.63372         1.12793
C         24.20133        25.35249         1.14815
C         25.43110        27.47331         0.95907
C         24.20348        26.76715         0.99989
C         25.45535        28.85629         0.67495
C         24.21876        29.55715         0.47744
C         25.48359        31.62273         0.01975
C         24.23923        30.94572         0.16272
C         25.51260        33.01207        -0.31789
C         24.25720        33.64766        -0.78691
C         25.48995        35.89942        -0.83120
C         24.26212        35.15128        -1.10371
C         25.47857        37.29950        -0.88246
C         24.24027        38.01890        -0.97796
C         25.48367        40.15875        -0.84999
C         24.24477        39.44355        -0.89781
C         25.48261        41.57991        -0.74494
C         24.24503        42.29639        -0.70182
C         25.47662        44.43961        -0.51775
C         24.24230        43.73043        -0.64672
C         25.46008        45.85366        -0.49213
C         24.25470        46.57405        -0.70458
C         25.47778        48.69946        -0.76402
C         24.28453        47.99151        -0.81617
C         27.90717        23.13723         0.94399
C         27.88212        24.54791         1.03732
C         26.64240        25.27407         1.10995
C         27.95742        27.43665         0.94131
C         26.68664        26.75830         1.38155
C         27.95170        28.83439         0.66538
C         26.71054        29.55024         0.55177
C         27.96003        31.63812         0.08367
C         26.72144        30.93344         0.23268
C         27.95867        33.04477        -0.14601
C         26.71314        33.72135        -0.31160
C         27.98426        35.89119        -0.61499
C         26.69261        35.22358        -0.23318
C         27.95202        37.26923        -0.89411
C         26.73582        38.01359        -0.89361
C         27.94235        40.17562        -0.99958
C         26.73052        39.44573        -0.93553
C         27.95619        41.58903        -0.86448
C         26.72332        42.29810        -0.70893
C         27.96853        44.40561        -0.59627
C         26.73015        43.71389        -0.54999
C         28.02850        45.85122        -0.33079
C         26.69196        46.61588        -0.25454
C         27.96015        48.75793        -0.47267
C         26.70631        48.06085        -0.49974
C         27.99440        50.17445        -0.43607
C         30.33743        23.11511         0.93809
C         29.10587        22.44363         0.86109
C         30.33379        24.52257         1.04067
C         29.12530        25.25285         1.04632
C         30.40254        27.39569         0.76256
C         29.15441        26.70786         0.94468
C         30.41433        28.80405         0.53971
C         29.18426        29.52092         0.45375
C         30.43056        31.62129         0.02560
C         29.19859        30.93120         0.19204
C         30.43086        33.04236        -0.21365
C         29.19767        33.75810        -0.27668
C         30.46066        35.86043        -0.70110
C         29.20828        35.16904        -0.55141
C         30.48504        37.25996        -0.95231
C         29.21300        37.94238        -1.22900
C         30.47707        40.17085        -1.07595
C         29.20405        39.47552        -1.28012
C         30.45578        41.59281        -1.03616
C         29.19095        42.30885        -0.96988
C         30.38556        44.49019        -1.20532
C         29.16768        43.71715        -0.88145
C         30.43080        45.95194        -0.97942
C         29.24416        46.62396        -0.64892
C         30.42769        48.77778        -0.72266
C         29.20592        48.04882        -0.57394
C         30.41931        50.20181        -0.69671
C         29.18233        50.87056        -0.52641
C         32.83278        20.26248         1.19117
C         31.65568        20.93096         1.16952
C         32.89346        23.06070         0.97192
C         31.60882        22.34284         0.64878
C         32.90857        24.50542         1.19233
C         31.59972        25.27002         1.21650
C         32.87475        27.37225         0.76329
C         31.63783        26.70174         0.88868
C         32.89049        28.78200         0.50572
C         31.65924        29.49295         0.40022
C         32.90763        31.55259        -0.08819
C         31.66791        30.89768         0.12913
C         32.89042        32.94556        -0.55512
C         31.65565        33.72991        -0.44176
C         32.94151        35.85921        -0.69077
C         31.69476        35.13628        -0.63164
C         32.93124        37.28930        -0.76872
C         31.69594        37.99115        -0.95246
C         32.92713        40.15187        -0.94390
C         31.69791        39.44250        -1.02825
C         32.92845        41.59791        -0.93141
C         31.67678        42.29314        -1.04081
C         33.00718        44.45413        -1.43090
C         31.67884        43.72816        -1.35563
C         32.92370        45.94383        -1.14636
C         31.66990        46.65416        -1.06514
C         32.87860        48.81683        -1.03122
C         31.66344        48.07646        -0.90986
C         32.89826        50.22440        -0.96009
C         31.65819        50.93799        -0.82541
C         32.88333        53.04572        -0.87279
C         31.67532        52.33933        -0.82810
C         35.33939        18.78533         0.71594
C         35.31003        20.21807         0.81258
C         34.09580        20.92250         0.92123
C         35.35398        23.08371         0.90948
C         34.09927        22.36778         0.91145
C         35.36389        24.50778         0.86959
C         34.14922        25.24389         0.93394
C         35.36430        27.36068         0.70880
C         34.12728        26.64937         0.81937
C         35.36892        28.77179         0.54453
C         34.13465        29.47662         0.38087
C         35.40168        31.57993        -0.00079
C         34.13887        30.87272         0.07503
C         35.43930        32.98597        -0.21899
C         34.22763        33.70344        -0.62375
C         35.40003        35.88139        -0.43678
C         34.19003        35.17725        -0.56893
C         35.39488        37.32466        -0.51059
C         34.15739        38.01780        -0.68070
C         35.39504        40.15518        -0.73354
C         34.16856        39.44505        -0.79580
C         35.41900        41.61944        -1.10288
C         34.12583        42.31437        -0.80794
C         35.40474        44.52606        -0.76284
C         34.08168        43.80339        -0.56191
C         35.40363        45.91559        -0.94023
C         34.13346        46.61650        -1.07556
C         35.44338        48.83664        -1.23232
C         34.12035        48.07372        -1.27755
C         35.38040        50.27830        -1.00007
C         34.15335        50.96078        -0.97370
C         35.35128        53.27410        -0.91799
C         34.11016        52.39516        -0.88280
C         35.30595        54.35498         0.13602
C         37.77871        18.77764         0.53123
C         36.51121        18.10184         0.56458
C         37.78034        20.21151         0.66327
C         36.56249        20.92659         0.77856
C         37.81682        23.06298         0.91293
C         36.58001        22.36043         0.86767
C         37.82979        24.49987         0.93230
C         36.60542        25.21867         0.83510
C         37.84023        27.34527         0.83085
C         36.60396        26.64160         0.77485
C         37.86171        28.78259         0.75659
C         36.61303        29.49022         0.51964
C         37.93666        31.56397         0.07554
C         36.60708        30.87103         0.26279
C         37.86706        33.06848         0.18545
C         36.64509        33.73840        -0.05749
C         37.85272        35.87473        -0.09238
C         36.63747        35.17007        -0.20396
C         37.92258        37.33917        -0.46070
C         36.59690        38.05624        -0.42067
C         37.86169        40.21092        -0.34188
C         36.60463        39.47054        -0.49835
C         37.85195        41.65937        -0.44301
C         36.64802        42.36759        -0.63971
C         37.85795        44.51638        -0.54934
C         36.62888        43.79131        -0.63479
C         37.86564        45.95793        -0.59825
C         36.64506        46.67156        -0.83829
C         37.85832        48.82363        -0.58456
C         36.66937        48.08752        -0.88455
C         37.89066        50.25175        -0.57101
C         36.66813        50.99555        -0.94598
C         37.86927        53.16203        -0.31743
C         36.66332        52.49350        -0.85738
C         37.75071        54.45829         0.18184
C         36.44018        54.95836         0.54858
C         40.17928        15.94257         0.12894
C         39.02656        16.64337         0.14788
C         40.24557        18.78056         0.44862
C         38.99300        18.07201         0.40322
C         40.24816        20.21003         0.54950
C         39.02374        20.92058         0.67320
C         40.29080        23.01944         0.96768
C         39.04839        22.33570         0.85901
C         40.28615        24.43152         1.49106
C         39.04988        25.21621         1.08566
C         40.26831        27.37087         1.42274
C         39.04400        26.61716         1.05551
C         40.30284        28.83855         1.20815
C         39.07043        29.48878         0.91581
C         40.33563        31.68290         0.78469
C         39.00495        30.99644         1.00494
C         40.32199        33.07752         0.54364
C         39.06880        33.78106         0.33343
C         40.30193        35.94201         0.30059
C         39.06001        35.20391         0.19850
C         40.29862        37.35262         0.29356
C         38.97108        38.07333         0.36643
C         40.27466        40.23916         0.19741
C         39.03308        39.54264         0.00110
C         40.30985        41.67640         0.00224
C         39.08060        42.38133        -0.31429
C         40.33095        44.53158        -0.54361
C         39.06875        43.78870        -0.44485
C         40.32779        45.97861        -0.29396
C         39.07545        46.67934        -0.38332
C         40.25313        48.83007        -0.00758
C         39.06932        48.10902        -0.32350
C         40.28465        50.24090         0.01203
C         39.08129        50.96634        -0.29699
C         40.29735        53.08667         0.10819
C         39.10197        52.41709        -0.23294
C         40.30997        54.55324         0.20659
C         38.95310        55.28980         0.31884
C         40.11652        57.21951         1.30798
C         38.95403        56.59226         1.00093
C         42.64928        15.98073        -0.28622
C         41.49408        16.57720         0.47331
C         42.69629        18.78589         0.27606
C         41.46649        18.08141         0.35504
C         42.69409        20.19792         0.44099
C         41.48621        20.91736         0.56521
C         42.75916        23.07016         0.75036
C         41.50415        22.34476         0.78098
C         42.76032        24.51151         0.92914
C         41.57555        25.16713         1.22151
C         42.86570        27.34582         1.56291
C         41.56840        26.59774         1.55384
C         42.80185        28.86889         1.54557
C         41.51579        29.55940         1.26458
C         42.79173        31.68700         0.81474
C         41.54129        30.97379         0.96909
C         42.78011        33.10641         0.61611
C         41.54282        33.80946         0.51975
C         42.76222        35.96729         0.47920
C         41.53679        35.23780         0.41659
C         42.75392        37.38670         0.47907
C         41.50075        38.07876         0.39554
C         42.70655        40.21355         0.77517
C         41.46143        39.51665         0.43859
C         42.71468        41.73756         0.66607
C         41.51158        42.37188         0.13089
C         42.81127        44.54068         0.13768
C         41.62525        43.77433        -0.27122
C         42.76798        45.94007         0.19275
C         41.51321        46.63329         0.03501
C         42.74927        48.81412         0.60134
C         41.44774        48.06272         0.37659
C         42.74583        50.27302         0.45790
C         41.51995        50.95448         0.28408
C         42.73742        53.09109         0.60193
C         41.51640        52.38315         0.33413
C         42.71202        54.51251         0.85677
C         41.48783        55.22187         0.77570
C         42.58702        57.23272         1.59104
C         41.40529        56.57057         1.17987
C         43.77567        16.68891        -0.50747
C         45.10520        18.78428        -0.31267
C         43.90264        18.08890        -0.12857
C         45.23553        20.17415         0.16561
C         43.96369        20.91863         0.56526
C         45.20199        23.09319         0.36185
C         43.96641        22.39281         0.54699
C         45.21147        24.52443         0.48391
C         44.02283        25.23522         0.82898
C         45.28297        27.34433         0.85369
C         44.08318        26.63534         1.08272
C         45.35538        28.81536         1.03223
C         44.08522        29.60645         1.29007
C         45.24717        31.68908         0.57497
C         44.03101        31.01282         0.85982
C         45.23708        33.11560         0.46423
C         44.00706        33.82470         0.54144
C         45.23318        35.96650         0.54527
C         44.01154        35.25971         0.52090
C         45.24236        37.40600         0.59339
C         43.99648        38.10962         0.56200
C         45.21907        40.24481         0.68468
C         44.00197        39.51944         0.66807
C         45.22628        41.68821         0.63583
C         44.01589        42.41646         0.52665
C         45.25452        44.53694         0.45718
C         44.02275        43.82178         0.38142
C         45.23679        45.95971         0.43847
C         44.00050        46.67404         0.40091
C         45.23700        48.81016         0.54853
C         44.01588        48.08169         0.47527
C         45.22036        50.25596         0.62546
C         43.98697        50.96703         0.56109
C         45.19939        53.11686         0.88341
C         43.96959        52.39914         0.66669
C         45.16678        54.50930         1.18152
C         43.89782        55.20781         1.21819
C         43.80377        56.57691         1.57562
C         47.41433        18.93093        -1.10630
C         46.26327        18.20971        -0.92374
C         47.51460        20.32710        -0.77991
C         46.40163        20.98295        -0.22839
C         47.60321        23.13108        -0.26909
C         46.39535        22.39812        -0.01762
C         47.62686        24.54439        -0.09333
C         46.43119        25.24034         0.27306
C         47.66193        27.38001         0.12404
C         46.44315        26.65967         0.40001
C         47.63063        28.82535         0.07781
C         46.50155        29.53724         0.44083
C         47.65574        31.69665         0.04175
C         46.46911        30.97543         0.36523
C         47.67240        33.12335         0.08963
C         46.45868        33.82700         0.30869
C         47.70220        35.93637         0.41805
C         46.47544        35.25201         0.42778
C         47.73774        37.34306         0.94575
C         46.45912        38.11698         0.69137
C         47.70381        40.27141         0.72757
C         46.46965        39.53608         0.70675
C         47.71298        41.66923         0.64603
C         46.46868        42.39309         0.59875
C         47.71441        44.54119         0.52718
C         46.47612        43.81349         0.55037
C         47.69713        45.93754         0.48001
C         46.46816        46.67879         0.50387
C         47.72554        48.81809         0.92866
C         46.45574        48.09288         0.58006
C         47.67962        50.29347         0.65056
C         46.46841        50.98395         0.66075
C         47.65572        53.15629         0.99254
C         46.45113        52.43367         0.80318
C         47.59682        54.52343         1.32847
C         46.38388        55.18364         1.42595
C         49.92264        20.41043        -1.41911
C         48.74523        21.05494        -0.98122
C         50.02194        23.16875        -0.83836
C         48.78852        22.45103        -0.69002
C         50.05937        24.57304        -0.59964
C         48.85543        25.26296        -0.26144
C         50.16440        27.42043        -0.05860
C         48.85209        26.68135        -0.12468
C         50.08590        28.81528        -0.62725
C         48.79004        29.55350        -0.46572
C         50.06221        31.70034        -0.51795
C         48.85064        31.01185        -0.32080
C         50.09548        33.13214        -0.37570
C         48.89660        33.83416        -0.09381
C         50.12949        35.98109        -0.02999
C         48.91250        35.26198         0.09994
C         50.13951        37.42836         0.16837
C         48.98094        38.09322         0.56355
C         50.21582        40.28104         0.45999
C         49.00804        39.54257         0.95955
C         50.20526        41.68948         0.44285
C         48.96165        42.40917         0.56554
C         50.20852        44.53566         0.39956
C         48.96519        43.81237         0.49114
C         50.23047        45.95139         0.34772
C         48.95377        46.66798         0.24342
C         50.24823        48.84662         0.56494
C         48.95877        48.16348         0.34465
C         50.23901        50.25026         0.72033
C         48.96600        50.98660         0.52939
C         50.22839        53.07605         1.24464
C         48.96537        52.50697         0.75054
C         51.11978        21.09851        -1.52981
C         52.47123        23.18085        -1.32178
C         51.20735        22.47391        -1.23311
C         52.51057        24.58245        -1.11370
C         51.30369        25.29443        -0.77487
C         52.55839        27.42334        -0.81266
C         51.34982        26.68200        -0.61337
C         52.57148        28.84680        -0.78522
C         51.33481        29.59042        -0.69178
C         52.53294        31.73306        -1.13315
C         51.29316        30.97335        -0.73931
C         52.55880        33.16494        -0.67050
C         51.33948        33.84862        -0.44846
C         52.57251        35.97941        -0.43043
C         51.34430        35.27805        -0.29767
C         52.53022        37.46400        -0.68042
C         51.35731        38.15572        -0.04185
C         52.62850        40.28382        -0.06059
C         51.39722        39.56117         0.12918
C         52.65402        41.69311         0.06894
C         51.43092        42.40523         0.26803
C         52.67679        44.54176         0.28936
C         51.44138        43.82562         0.32266
C         52.68309        45.96041         0.39993
C         51.44407        46.67302         0.40951
C         52.69158        48.81265         0.70480
C         51.45363        48.11431         0.54451
C         52.68664        50.22589         0.90519
C         51.44566        50.95163         0.92410
C         51.38549        52.36311         1.24318
C         54.89215        23.17578        -1.64080
C         53.68574        22.50373        -1.59617
C         54.96590        24.57570        -1.43788
C         53.75260        25.28731        -1.19507
C         55.01163        27.41379        -1.10064
C         53.77921        26.70988        -1.04234
C         55.03379        28.83716        -0.97315
C         53.80408        29.56059        -0.88100
C         55.03211        31.68545        -0.81971
C         53.81634        30.98361        -0.87053
C         55.04450        33.13266        -0.71768
C         53.78903        33.84779        -0.62651
C         55.04646        35.98696        -0.55961
C         53.79147        35.27917        -0.52525
C         55.05751        37.42047        -0.51859
C         53.84192        38.15946        -0.44140
C         55.07146        40.29883        -0.38229
C         53.85177        39.57086        -0.29328
C         55.11537        41.70046        -0.19926
C         53.89357        42.41031         0.01023
C         55.14677        44.53030         0.23975
C         53.90851        43.82560         0.17491
C         55.14948        45.94681         0.43707
C         53.92346        46.66580         0.49395
C         55.16360        48.78188         0.81644
C         53.93050        48.09011         0.66884
C         55.12841        50.19367         1.00133
C         53.94149        50.88668         1.04693
C         57.46573        24.60677        -1.64106
C         56.22492        25.28487        -1.46034
C         57.47698        27.40876        -1.28649
C         56.23806        26.69481        -1.28450
C         57.50153        28.82806        -1.11716
C         56.26595        29.54925        -0.98587
C         57.51373        31.67392        -0.81605
C         56.27099        30.96624        -0.86690
C         57.51671        33.09599        -0.66005
C         56.26211        33.82064        -0.63004
C         57.50266        35.97671        -0.51561
C         56.27536        35.27160        -0.56318
C         57.52526        37.39566        -0.60300
C         56.29968        38.10409        -0.60656
C         57.62791        40.30912        -0.64748
C         56.28948        39.56443        -0.73633
C         57.61090        41.71886        -0.22615
C         56.37264        42.41047        -0.12916
C         57.62175        44.49669         0.31742
C         56.37827        43.80960         0.14272
C         57.62127        45.91065         0.54035
C         56.39356        46.64382         0.57890
C         57.66443        48.70496         0.94858
C         56.40914        48.05222         0.78077
C         58.66210        25.28697        -1.63427
C         59.92585        27.41326        -1.43405
C         58.69833        26.69801        -1.45274
C         59.94305        28.77863        -1.24846
C         58.73881        29.51903        -1.08490
C         59.95081        31.67015        -0.73831
C         58.74637        30.95535        -0.88759
C         59.94383        33.04298        -0.52497
C         58.74714        33.77345        -0.50927
C         59.99457        35.97614        -0.67727
C         58.77814        35.24553        -0.17036
C         60.00103        37.32265        -0.76766
C         58.79222        38.10916        -0.60834
C         60.04876        40.22257        -0.18538
C         58.84755        39.50407        -0.47805
C         60.04621        41.57953         0.02675
C         58.84032        42.36337         0.03858
C         60.06933        44.49681         0.50166
C         58.85329        43.77990         0.29536
C         60.07210        45.85690         0.70316
C         58.85467        46.59448         0.72337
C         58.84761        48.00143         0.92602
O         27.43047        46.21707         0.95484
O         42.56175        41.07107         1.96569
O         36.91233        51.85086        -2.15595
O         44.86403        20.34671         1.57790
O         49.22674        29.00431        -1.78434
O         56.96435        40.07558        -1.93836
O         49.04630        51.93156        -0.59218
O         42.94370        28.12157         2.79447
O         30.88119        44.07682        -2.54538
O         40.76020        26.92447         2.74464
O         34.82782        48.44581        -2.51418
O         45.04971        29.35506         2.36317
O         24.37826        34.11720        -2.17596
O         29.17876        38.66025        -2.50525
O         41.19000        44.07982        -1.64388
O         41.92487        48.34952         1.74255
O         32.26782        24.91886         2.48002
O         39.73781        55.27375        -0.92353
O         48.82756        47.55233        -0.96181
O         33.59664        33.14618        -1.83014
O         38.53418        38.00982         1.75578
H         39.21689        38.44659         2.30721
O         50.44409        27.62614         1.37136
H         50.52983        26.74387         1.79053
O         31.60753        22.23021        -0.83243
H         32.35779        21.64650        -1.07713
O         38.38090        37.39937        -1.84450
H         37.67867        37.02336        -2.41544
O         52.29776        37.58533        -2.14898
H         53.04659        37.13797        -2.59888
O         58.86705        35.29244         1.30454
H         58.90477        36.23845         1.56110
O         26.70566        26.86561         2.86779
H         25.89207        26.42371         3.19366
O         38.36830        31.26799        -1.28842
H         37.68825        31.61862        -1.90135
O         49.16365        39.54178         2.46011
H         50.07342        39.22363         2.64918
O         33.68020        44.01485         0.82580
H         34.35616        43.60361         1.40412
O         40.19972        24.28754         2.95162
H         40.30445        25.19943         3.32260
O         47.90234        48.67437         2.38906
H         47.09204        49.01961         2.82108
O         35.33334        53.96605        -2.19883
H         35.76117        53.35724        -2.84422
O         26.53755        35.47744         1.23575
H         26.63077        36.44562         1.37035
O         38.58903        31.31141         2.36598
H         39.24724        30.92440         2.98095
O         52.45312        31.83271        -2.61165
H         52.29683        30.92728        -2.95644
O         41.73863        16.27419         1.89529
H         42.56196        16.74199         2.15217
O         33.48183        44.30746        -2.79380
H         32.70454        44.45616        -3.37983
O         47.79685        37.18666         2.41689
H         48.07803        38.06739         2.77531
O         35.50873        41.64070        -2.58601
H         35.17436        42.51625        -2.88669
H         22.03040        26.93082         0.86553
H         22.03363        29.34743         0.44471
H         22.05047        31.19734         0.19354
H         22.04289        33.47111        -0.65914
H         22.07448        35.37792        -1.37088
H         22.06232        37.80279        -1.16403
H         22.06492        39.66416        -0.86135
H         22.06649        42.07654        -0.69664
H         22.07227        43.95041        -0.85571
H         22.09432        46.40105        -0.95896
H         25.33905        23.53691         1.09596
H         23.24128        24.81806         1.16785
H         25.45189        49.78484        -0.93208
H         23.34205        48.52712        -0.99783
H         26.96877        22.56876         0.90782
H         27.05986        50.73853        -0.31695
H         29.08067        21.35315         0.73180
H         29.14767        51.96632        -0.47712
H         32.84310        19.20545         1.49358
H         30.72503        20.40747         1.43009
H         32.85268        54.14369        -0.88717
H         30.74092        52.91277        -0.78422
H         34.39501        18.22487         0.73810
H         34.33049        54.74623         0.45829
H         36.47705        17.00715         0.48781
H         36.38269        55.82760         1.22015
H         40.16741        14.86156        -0.07647
H         38.08436        16.12072        -0.06916
H         40.09393        58.22111         1.76273
H         37.99431        57.07495         1.23325
H         42.59768        14.91854        -0.56888
H         42.53188        58.28380         1.90870
H         44.62737        16.19420        -0.99479
H         44.70366        57.13157         1.87222
H         48.27366        18.42334        -1.56285
H         46.24685        17.16051        -1.24699
H         48.52445        55.09086         1.48249
H         46.38727        56.25523         1.66309
H         49.91386        19.33985        -1.65992
H         50.23720        54.10648         1.62795
H         52.00830        20.54563        -1.86089
H         52.30171        52.86357         1.58627
H         55.80401        22.59848        -1.84237
H         53.68876        21.41802        -1.75855
H         56.06521        50.75601         1.10874
H         53.97403        51.97577         1.18321
H         57.47948        23.51758        -1.77994
H         57.70145        49.79087         1.10608
H         59.60763        24.74156        -1.76719
H         60.86818        26.86227        -1.56636
H         60.91121        29.29666        -1.23947
H         60.91556        31.14675        -0.75381
H         60.90293        33.55021        -0.35604
H         60.92727        35.42318        -0.85518
H         60.92909        37.84278        -1.04649
H         60.99892        39.67492        -0.11239
H         61.00485        42.07009         0.24114
H         61.02854        43.96265         0.48931
H         61.02173        46.39148         0.84987
H         59.80419        48.52579         1.06403
