         311
 CSIRO Nanostructure Databank - Neutral Graphene Oxide Data Set
C         30.84786        56.95195        -2.29026
C         30.85424        58.36806        -2.43220
C         29.77176        59.04893        -3.02286
C         30.93987        61.17565        -2.88170
C         29.81846        60.43745        -3.22853
C         32.94082        52.78404        -0.62973
C         33.02265        54.18414        -0.90173
C         31.96096        54.86591        -1.60700
C         32.98361        57.05731        -0.96142
C         31.90729        56.25909        -1.67717
C         33.12634        58.48257        -1.45346
C         32.02122        59.12737        -2.04006
C         33.22995        61.26453        -1.94164
C         32.07389        60.54036        -2.29275
C         35.24911        48.40201        -0.03662
C         35.12568        49.82190         0.33196
C         33.99004        50.65938        -0.04140
C         35.10485        52.83436         0.60535
C         33.98288        52.05895        -0.00443
C         35.02727        54.37211         0.57842
C         34.15529        54.91031        -0.51326
C         35.45917        57.09542        -0.42259
C         34.32157        56.31103        -1.03308
C         35.48122        58.53174        -0.65724
C         34.30734        59.19983        -1.16561
C         35.53960        61.35080        -1.06608
C         34.36015        60.62083        -1.39314
C         37.81725        44.13396         1.04308
C         37.66118        45.59794         0.97409
C         36.48502        46.28417         0.39217
C         37.71951        48.43832         0.25152
C         36.42718        47.67812         0.26325
C         37.69203        49.94821         0.21607
C         36.42767        50.60648         0.64095
C         37.71939        52.83777         0.82335
C         36.42119        52.10509         0.81139
C         37.69264        54.30901         0.96175
C         36.39863        55.06002         0.69489
C         37.82072        57.11111         0.25387
C         36.51276        56.44352         0.17527
C         37.85225        58.59133         0.00433
C         36.60902        59.29100        -0.33612
C         37.90492        61.42462        -0.30967
C         36.67230        60.71545        -0.53768
C         40.40389        40.07635         1.32978
C         40.40112        41.43562         1.59148
C         39.04528        42.08704         1.78289
C         40.24132        44.29211         1.55108
C         39.00061        43.54887         1.40732
C         40.22796        45.67982         1.35592
C         38.93857        46.37618         1.17540
C         40.20365        48.56262         0.96774
C         38.99208        47.76013         0.62175
C         40.18759        50.02679         0.75799
C         38.94914        50.74817         0.34890
C         40.20983        52.87899         0.88374
C         38.92673        52.19094         0.71168
C         40.21490        54.30431         1.00961
C         38.99505        55.02365         0.88114
C         40.23834        57.12708         0.95133
C         39.01585        56.41588         0.79371
C         40.21432        58.61990         0.94859
C         38.99339        59.37768         0.54228
C         40.30483        61.48648         0.34540
C         39.07661        60.81103         0.15398
C         42.59726        35.97511        -0.20536
C         42.68503        37.24971         0.37226
C         41.55154        38.00103         0.71976
C         42.83967        40.08871         1.20225
C         41.61349        39.36874         1.11693
C         42.87328        41.47048         1.53728
C         41.62052        42.16829         1.73621
C         42.54165        44.45336         2.26217
C         41.48301        43.62045         1.87452
C         42.60447        45.83756         1.92666
C         41.43450        46.44580         1.39378
C         42.70900        48.51727         1.02890
C         41.49214        47.83319         1.07576
C         42.73660        49.96195         0.69986
C         41.47163        50.75409         0.57445
C         42.68389        52.87170         1.12740
C         41.44578        52.20283         0.86811
C         42.68264        54.28823         1.29641
C         41.44683        55.01091         1.17012
C         42.66829        57.20260         1.62403
C         41.42869        56.43770         1.20388
C         42.76608        58.57548         0.98641
C         41.50651        59.32586         0.71958
C         42.73583        61.46154         0.83596
C         41.51533        60.80951         0.66047
C         44.71498        33.35155        -1.84483
C         43.60576        33.99986        -1.30505
C         45.03467        35.87072        -0.64860
C         43.74191        35.27583        -0.70273
C         45.22687        37.16505         0.02523
C         44.01688        37.84649         0.61277
C         45.27385        40.06444         0.50692
C         44.09071        39.31565         0.98143
C         45.28027        41.45557         0.75827
C         44.19919        42.11538         1.49763
C         45.62380        44.17308         1.67676
C         44.48658        43.36317         2.04494
C         45.75962        45.53725         1.89141
C         43.79011        46.62148         2.02273
C         45.23365        48.53752         1.20776
C         43.93531        47.87103         1.40456
C         45.18388        49.94646         1.09361
C         43.94943        50.70407         1.06421
C         45.17209        52.76834         1.56502
C         43.90739        52.08596         1.20516
C         45.16104        54.26921         1.69933
C         43.91446        55.03526         1.46383
C         45.20692        57.17326         1.42453
C         43.95491        56.42422         1.47029
C         45.21217        58.65071         1.40504
C         44.00014        59.34727         1.21280
C         45.18139        61.48140         1.24553
C         43.97110        60.76839         1.10462
C         45.96893        33.96540        -1.84420
C         47.40698        35.93511        -1.37060
C         46.14149        35.24611        -1.26867
C         47.57619        37.27372        -1.08616
C         46.46808        37.97832        -0.34972
C         47.20081        40.31375        -0.92792
C         46.31223        39.45708        -0.25513
C         47.34254        41.66123        -0.53973
C         46.44142        42.18127         0.40639
C         47.92609        44.27992         0.56586
C         46.72372        43.48559         0.99932
C         47.84088        45.75418         0.61189
C         46.71151        46.39120         1.20157
C         47.62728        48.52936         0.47839
C         46.51339        47.81661         1.02214
C         47.46761        50.01109         0.13886
C         46.38398        50.71381         0.90823
C         47.64461        52.82561         0.95089
C         46.42819        52.06953         1.18164
C         47.71559        54.26990         1.26127
C         46.45777        55.01797         1.61197
C         47.67059        57.14740         1.08270
C         46.40123        56.47153         1.35443
C         47.67944        58.66816         1.31429
C         46.41561        59.39441         1.52932
C         47.63452        61.61435         1.34684
C         46.42386        60.83215         1.45074
C         48.91167        37.84850        -1.20577
C         50.33661        39.94218        -1.39574
C         49.13261        39.17745        -1.51027
C         50.35619        41.33882        -1.54122
C         48.45901        42.46067        -0.99813
C         50.03973        44.37860        -0.78652
C         48.81128        43.67058        -0.45746
C         50.04293        45.75575        -0.57426
C         48.89738        46.47296        -0.00455
C         49.93394        48.75203        -0.53909
C         48.81591        47.88956         0.04966
C         49.95126        50.09635         0.16659
C         48.75750        50.76445         0.24564
C         50.00755        52.93217         0.02997
C         48.77283        52.18416         0.48684
C         50.08071        54.33869         0.54206
C         48.94629        55.01467         0.89033
C         50.15755        57.15863         1.07193
C         48.96914        56.44256         1.11127
C         50.19297        58.56226         1.42145
C         48.95687        59.15375         1.77689
C         50.20391        61.55106         1.28015
C         48.92315        61.17803         1.72981
C         51.39546        42.23538        -1.21295
C         52.49998        44.38294        -1.12513
C         51.28314        43.65360        -1.10315
C         52.55911        45.78639        -1.07249
C         51.26326        46.50505        -0.94448
C         52.64041        48.59543        -0.65028
C         51.27994        47.99594        -0.78462
C         52.91390        49.73157         0.05258
C         51.12648        50.84578         0.53567
C         52.58452        52.86269         0.38533
C         51.28364        52.18674         0.34445
C         52.62811        54.23045         0.48605
C         51.37815        55.02367         0.40767
C         52.71241        57.13676         1.01919
C         51.41942        56.49494         0.70298
C         52.67821        58.55108         1.43968
C         51.39622        59.30790         1.46808
C         52.63320        61.40128         1.13853
C         51.39698        60.74960         1.39656
C         53.73881        46.51408        -1.33229
C         55.04860        48.64211        -1.26274
C         53.82527        47.93070        -1.19871
C         55.16348        50.03191        -0.92850
C         53.93289        50.68031        -0.41393
C         55.07079        52.94147        -0.27361
C         53.81224        52.16093        -0.14871
C         55.10296        54.30398         0.04764
C         53.93510        54.93338         0.78126
C         55.14848        57.18157         0.65252
C         53.89324        56.46057         0.76187
C         55.18000        58.55923         0.85934
C         54.00440        59.31281         1.34549
C         54.99871        61.45552         0.55956
C         53.89656        60.76522         1.05048
C         56.25667        50.86113        -1.13016
C         57.38780        53.03541        -1.01264
C         56.23362        52.27164        -0.80462
C         57.42972        54.42197        -0.72286
C         56.27882        55.07568        -0.16548
C         57.51978        57.18709        -0.12440
C         56.33598        56.47962         0.14197
C         57.64799        58.61194         0.23713
C         56.43145        59.31711         0.73818
C         57.41110        61.52332        -0.19594
C         56.33656        60.86995         0.54822
C         58.58953        55.17441        -1.01485
C         59.73258        57.32467        -1.27777
C         58.64075        56.55308        -0.76266
C         59.74419        58.71773        -1.25701
C         58.77166        59.43052        -0.39768
C         59.51274        61.55825        -1.44802
C         58.55211        60.87747        -0.63837
C         60.65835        59.48261        -2.02117
C         60.54886        60.87777        -2.08082
O         51.40602        56.00077        -0.70506
O         53.38842        51.59326        -1.46405
O         47.95929        43.54898         1.83917
O         44.27024        38.26606         1.98995
O         38.02652        46.22983         2.29979
O         48.93600        60.14349         2.73566
O         38.23355        57.66636        -1.07643
O         36.89705        54.88479         2.06439
O         58.84215        58.97401         0.99154
O         38.34732        50.50178        -0.96530
O         35.72994        49.96388         1.69445
O         47.67811        58.08516        -0.03778
O         46.35122        37.28213         0.94119
O         42.20093        50.34582        -0.62690
O         42.25030        58.67409        -0.37929
O         51.14865        47.38861        -2.12951
O         45.10237        53.41090         2.88900
O         39.31902        59.17320         1.96575
O         56.69072        60.22493         1.82371
O         53.49392        58.85106         2.62751
O         40.01736        49.47973         2.11601
O         43.60245        43.90529         2.98804
O         47.97854        39.84883        -1.98213
O         38.61510        47.87539        -0.78153
O         35.53054        52.43125         1.93307
O         49.19590        41.94544        -2.06610
O         44.86020        46.14209         2.77929
O         47.38676        54.61552         2.66831
O         52.14139        50.10404         1.14449
O         34.67243        56.18381        -2.44560
H         34.86005        57.08264        -2.79148
O         46.99423        50.03907        -1.24175
H         47.76731        49.76049        -1.79909
O         49.45953        49.14099        -1.87091
H         49.80776        48.46388        -2.50447
O         49.87944        53.05164        -1.42163
H         50.68382        53.50227        -1.75761
O         38.02428        41.35252         1.10368
H         38.20417        41.39190         0.14229
O         42.53321        57.46974         3.05545
H         42.49860        56.61086         3.52736
O         32.61236        57.13867         0.43631
H         31.74309        57.58581         0.49706
O         54.18286        54.63305         2.20546
H         54.98028        55.13335         2.48289
O         34.31290        54.73148         1.79303
H         34.84877        54.36747         2.53600
H         30.00866        56.38217        -2.71873
H         28.88179        58.48113        -3.32995
H         30.96928        62.25908        -3.06596
H         28.95530        60.94155        -3.68567
H         32.07472        52.22587        -1.01552
H         31.13474        54.26938        -2.02380
H         33.25690        62.35169        -2.10850
H         34.33006        47.85232        -0.29130
H         33.18284        50.16590        -0.60510
H         35.56725        62.43185        -1.26871
H         36.93501        43.49319         0.88752
H         35.55900        45.70054         0.27421
H         37.93110        62.49672        -0.55788
H         39.44476        39.54397         1.25217
H         38.79658        42.02728         2.88053
H         40.33991        62.57581         0.19038
H         41.60563        35.51450        -0.33042
H         40.55723        37.54527         0.59770
H         42.76874        62.55953         0.76731
H         44.59678        32.35689        -2.29698
H         42.61533        33.52433        -1.33831
H         45.16774        62.57627         1.13943
H         46.82975        33.46169        -2.30644
H         48.24940        35.37917        -1.80933
H         47.54894        62.59405         0.85304
H         49.76651        37.17246        -1.05223
H         51.23648        39.43634        -1.01833
H         50.30627        62.51247         0.75531
H         52.40306        41.81264        -1.07240
H         53.43604        43.82356        -1.27534
H         52.60475        62.48477         0.94781
H         54.65530        45.95346        -1.57221
H         55.95084        48.10517        -1.59171
H         54.87033        62.47989         0.17802
H         57.17721        50.45883        -1.57901
H         58.28741        52.55503        -1.42527
H         57.23507        62.55993        -0.52321
H         59.44917        54.67675        -1.48736
H         60.50939        56.79374        -1.84882
H         59.41288        62.64537        -1.57802
H         61.43217        58.96611        -2.60656
H         61.26761        61.44436        -2.68940
