         240
 CSIRO Nanostructure Databank - Neutral Graphene Oxide Data Set
C        -11.05693         0.57962        -0.49175
C         -9.83721         1.36230        -0.33960
C         -8.59678         0.65483        -0.05108
C         -7.42712         1.32202         0.28532
C         -6.20988         0.59756         0.63032
C         -5.02482         1.35513         1.13327
C         -3.71421         0.64172         1.26289
C         -2.42893         1.38717         1.12470
C         -1.19781         0.63868         1.49779
C          0.01268         1.44733         1.80454
C          1.36587         0.72242         1.92661
C          2.61183         1.52339         1.82808
C          3.80485         0.86044         1.50027
C          5.04700         1.56420         1.21228
C          6.09489         0.91064         0.40451
C          7.31792         1.67255         0.02061
C          8.54672         0.91313        -0.24614
C          9.73459         1.60706        -0.42349
C         10.93345         0.82772        -0.72740
C         -9.83970         2.72144        -0.46484
C         -8.62752         3.55750        -0.18023
C         -7.37151         2.76675         0.14532
C         -6.19501         3.45337         0.28445
C         -5.12525         2.88602         1.19415
C         -3.75835         3.64219         1.14402
C         -2.45011         2.88281         1.05339
C         -1.17039         3.62724         1.24653
C          0.00680         2.91628         1.52811
C          1.24652         3.61783         1.70186
C          2.46691         2.96599         1.96500
C          3.61843         3.80862         2.22190
C          5.41613         2.78311         1.75177
C          6.45721         3.63199         1.24264
C          7.42232         3.08546         0.39871
C          8.63301         3.77433         0.05224
C          9.74612         3.04834        -0.33123
C         -8.31000         4.55521        -1.27007
C         -7.12710         5.22120        -1.21580
C         -6.15230         4.87999        -0.13378
C         -4.92390         5.72166         0.06271
C         -3.71322         5.10399         0.75290
C         -2.39417         5.89744         0.73104
C         -1.13585         5.03424         0.90527
C          0.07165         5.70339         0.89288
C          1.25419         5.08501         1.51475
C          2.58039         5.83789         1.43812
C          3.80595         5.08660         1.73684
C          5.12836         5.79567         1.75516
C          6.47068         5.07728         1.58933
C          7.76744         5.84484         1.27834
C          8.55810         5.28272         0.07451
C         -6.75808         6.21565        -2.19197
C         -5.61296         6.95334        -2.09671
C         -4.73268         6.95776        -0.85019
C         -3.28751         7.28331        -1.19804
C         -2.24773         6.87144        -0.41853
C         -0.97501         7.62544        -0.45053
C          0.22142         7.06758         0.32624
C          1.54759         7.57499        -0.04694
C          2.70773         7.04252         0.58107
C          3.95361         7.62857         0.45121
C          5.03870         7.29513         1.46363
C          6.34690         7.94875         1.07566
C          7.53769         7.32170         1.04300
C         -5.31110         7.91926        -3.12692
C         -4.12173         8.57849        -3.17270
C         -3.05459         8.27553        -2.24838
C         -1.81555         8.86418        -2.42195
C         -0.71846         8.57406        -1.55041
C          0.52299         9.16277        -1.67797
C          1.66790         8.71773        -0.91443
C          2.91185         9.30689        -1.10093
C          4.18016         8.74618        -0.53529
C          5.13866         9.77925         0.01550
C          6.20321         9.37048         0.72651
C        -11.08451        -0.77410        -0.35418
C         -9.87520        -1.54544        -0.16596
C         -8.60264        -0.80411        -0.22253
C         -7.30982        -1.55453         0.06520
C         -6.14339        -0.77066         0.53785
C         -4.87135        -1.52014         0.68705
C         -3.62403        -0.82508         1.06636
C         -2.46856        -1.49198         1.39346
C         -1.22096        -0.73224         1.65861
C          0.08342        -1.45626         1.83215
C          1.39850        -0.74096         1.64236
C          2.60198        -1.41447         1.49670
C          3.84239        -0.61036         1.39481
C          5.10739        -1.15935         1.28487
C          6.37496        -0.49547         0.85533
C          7.30652        -1.21922        -0.11644
C          8.42105        -0.51015        -0.49673
C          9.52888        -1.17283        -1.28955
C         10.85600        -0.47694        -1.06848
C         -9.86738        -2.91169         0.00704
C         -8.66262        -3.63541         0.33618
C         -7.45288        -2.96162         0.46265
C         -6.27423        -3.64817         0.99227
C         -4.93965        -3.01501         0.80272
C         -3.74820        -3.77319         1.24199
C         -2.52150        -2.98357         1.53764
C         -1.22140        -3.73611         1.59827
C          0.06756        -2.94510         1.59170
C          1.24676        -3.49665         0.85547
C          2.59377        -2.92432         1.25133
C          3.73363        -3.77937         0.71039
C          5.09451        -3.25115         0.59927
C          5.93624        -3.43952        -0.44095
C          7.10073        -2.55282        -0.82924
C          8.39792        -3.34869        -0.87833
C          9.55043        -2.67459        -1.05722
C         -8.70645        -5.07411         0.53627
C         -7.59627        -5.81113         0.82270
C         -6.31583        -5.15040         1.13129
C         -5.02939        -5.89415         1.02031
C         -3.78045        -5.15370         1.28174
C         -2.50937        -5.92357         1.17392
C         -1.21068        -5.18357         1.17664
C         -0.30053        -5.46041        -0.01186
C          1.09161        -4.82054         0.15323
C          2.28933        -5.64948        -0.10037
C          3.52231        -4.98073        -0.12269
C          4.59418        -5.53151        -0.84298
C          5.76151        -4.68215        -1.29713
C          7.05667        -5.50381        -1.22748
C          8.31977        -4.85701        -0.67026
C         -7.58909        -7.31820         0.89884
C         -6.34684        -7.84632         0.15927
C         -5.05403        -7.21394         0.66341
C         -3.79219        -8.06103         0.73395
C         -2.57034        -7.22467         0.44137
C         -1.49500        -7.74769        -0.20584
C         -0.26286        -6.92886        -0.58500
C          0.99854        -7.79944        -0.17234
C          2.25317        -7.01152        -0.42420
C          3.41603        -7.64494        -0.89697
C          4.53230        -6.86961        -1.25491
C          5.69072        -7.43215        -2.05283
C          6.99613        -6.81053        -1.55666
C         -6.30260        -9.35275         0.12312
C         -5.14928       -10.01519        -0.09446
C         -3.87347        -9.31642        -0.10311
C         -2.77376        -9.81911        -0.73164
C         -1.50741        -9.11724        -0.71893
C         -0.34075        -9.71783        -1.13962
C          0.95717        -9.10834        -0.94661
C          2.11330        -9.71049        -1.34239
C          3.45247        -9.15115        -0.91369
C          4.65354        -9.69257        -1.64618
C          5.67988        -8.94194        -2.06622
O          4.87707         8.14869        -1.69886
H          4.26863         7.49971        -2.11179
O         -4.71295        -2.40928        -0.50662
O         -3.68363        -8.51038         2.12380
H         -3.32443        -7.76536         2.65308
O         -3.84704         4.68309         2.14946
O          6.79136        -2.15040        -2.21007
H          7.57205        -1.64789        -2.56825
O          1.72594         5.94636         2.63204
O         -7.71300        -1.25156        -1.30970
O         -4.53113         0.90098         2.45906
O         -6.07486         5.88579         0.95071
O         -0.99282        -4.70692        -1.03377
H         -0.77959        -5.19375        -1.87990
O         -2.44605         6.73873         1.90748
H         -2.78960         6.18808         2.64699
O          3.61946        -9.56279         0.48602
H          2.88172        -9.16107         0.99929
O          7.86275         5.70159        -1.10937
H          8.31481         5.32040        -1.88952
O          7.14980        -0.32449         2.09126
H          7.10815        -1.17517         2.58098
O         -7.57269        -7.73678         2.26715
H         -6.83153        -7.28668         2.72340
O          4.61725         7.95241         2.69070
H          3.85641         7.45682         3.06349
O          5.52486        -7.02341        -3.43723
H          5.43755        -6.03618        -3.43860
O         -8.95545         4.31945         1.02425
H         -8.12472         4.71308         1.37192
O         -5.17178         8.11029        -0.08562
H         -5.83819         7.78359         0.56307
O          5.96356         5.45276         2.90299
O          9.20746        -0.98470        -2.71852
H          9.91668        -1.41209        -3.24391
O          0.29979        -2.42288         2.92293
O          0.93895        -8.07701         1.23603
H          0.13551        -8.61005         1.42028
O          4.69869         3.20525         2.87312
O         -5.69060         3.15716         2.49946
H         -5.19551         2.61614         3.15524
O         -0.20929        -6.84106        -1.96371
O         -6.51124        -7.39967        -1.22016
H         -5.76423        -7.75554        -1.74608
O          5.48229        -4.36472        -2.68481
H          5.95526        -3.51678        -2.88995
O          8.36227        -5.10395         0.75003
H          7.51382        -4.80715         1.14065
O          8.62145         5.68255         2.42902
H          8.06434         5.83461         3.22441
O          3.29549        -3.84604         2.12326
O         -0.61324         8.14128         0.86696
O         -6.39823        -4.26842         2.31109
O         -1.95293        -3.46587         2.81054
O          6.24010         1.29727        -0.97537
O          1.12034        -3.53583        -0.59090
O          5.41015        -2.44922         1.70790
O         -1.50871        -6.08175         2.27598
O          0.57699         1.08400         3.10847
O         -2.37473         2.07587        -0.19073
H         11.77214        -1.03540        -1.31706
H         11.91182         1.32860        -0.67044
H         10.68672         3.57757        -0.54946
H          9.59193         5.72790         0.08574
H          8.43285         7.90280         0.76953
H          6.98536        10.07997         1.03711
H          5.00572        10.83254        -0.27014
H          3.00440        10.14899        -1.80417
H          0.68342         9.93105        -2.44838
H         -1.66703         9.58703        -3.23786
H         -3.92555         9.31489        -3.96533
H         -6.07350         8.10135        -3.89935
H         -7.42619         6.36024        -3.05537
H         -9.04856         4.78704        -2.05220
H        -10.77641         3.25241        -0.69143
H        -11.99148         1.13057        -0.67262
H        -12.04050        -1.31477        -0.41654
H        -10.81805        -3.46560        -0.01054
H         -9.66293        -5.58638         0.35065
H         -8.50963        -7.74193         0.42881
H         -7.26214        -9.89078         0.12641
H         -5.15228       -11.10192        -0.27301
H         -2.83477       -10.78038        -1.26503
H         -0.37781       -10.73606        -1.55687
H          2.07583       -10.67991        -1.86436
H          4.71107       -10.78869        -1.74222
H          6.53817        -9.42981        -2.55570
H          7.90576        -7.43287        -1.52539
H          9.22767        -5.34299        -1.10736
H         10.51349        -3.20735        -1.11888
