         280
 CSIRO Nanostructure Databank - Neutral Graphene Oxide Data Set
C         30.33068        31.88354         0.74823
C         30.37788        32.86347        -0.00478
C         30.47463        35.92251        -1.15347
C         30.50746        37.12914        -1.39785
C         30.64830        40.28167        -2.07056
C         30.73436        41.53193        -2.15971
C         32.68395        29.55746         2.54061
C         31.59578        30.04526         2.23033
C         32.74032        31.96644         1.20701
C         31.37713        31.36166         1.62812
C         32.81533        32.81099        -0.06590
C         31.55137        33.57490        -0.53481
C         32.85839        35.83944        -0.81638
C         31.60135        34.99918        -0.97004
C         32.89692        37.16133        -1.12970
C         31.71608        37.91040        -1.85040
C         32.97331        40.15682        -1.30551
C         31.68058        39.38922        -1.52680
C         33.07677        41.69708        -1.36582
C         31.81212        42.41153        -2.08292
C         33.29229        44.33050        -2.42782
C         32.20412        43.68382        -2.45992
C         35.30471        27.86460         2.39341
C         35.23317        29.26154         2.31167
C         34.06570        30.15634         2.57555
C         35.21355        31.74898         0.98110
C         34.02271        31.27779         1.51299
C         35.23071        32.99892         0.21715
C         34.06477        33.66507        -0.06189
C         35.35150        35.77054        -0.45214
C         34.01958        35.18844        -0.07195
C         35.39820        37.13979        -0.91740
C         34.13679        37.97402        -0.75032
C         35.50487        40.10005        -1.10369
C         34.25011        39.32485        -1.52516
C         35.55090        41.47099        -1.29034
C         34.40353        42.11887        -2.06377
C         35.79935        44.37931        -1.77391
C         34.58797        43.64798        -2.24911
C         35.90549        45.83491        -1.59883
C         37.63003        27.55838         1.73893
C         36.34112        27.18573         2.08682
C         37.76763        29.05459         2.11743
C         36.48364        29.85716         1.92264
C         37.74791        31.78254         1.01303
C         36.49162        31.13629         1.35139
C         37.76953        32.87642         0.18043
C         36.52478        33.56750        -0.31636
C         37.88931        35.77667        -0.27254
C         36.58170        35.07851         0.05209
C         37.91708        37.15573        -0.37439
C         36.70522        37.90019        -0.78348
C         37.85530        40.02152        -0.31505
C         36.66962        39.36746        -0.66055
C         37.82668        41.47640        -0.10403
C         36.63627        42.25262        -0.65723
C         37.91563        44.37421        -0.37770
C         36.86136        43.70472        -0.92738
C         38.16327        45.91060        -0.63169
C         36.80955        46.40956        -0.99249
C         39.66404        24.85915         0.34501
C         38.65187        25.43459         0.93506
C         40.00521        27.50708         0.78859
C         38.69514        26.81178         1.22019
C         40.11342        28.95803         1.24721
C         39.01273        29.69583         1.54972
C         40.29205        31.69321         0.98165
C         39.02391        31.23709         1.67239
C         40.19840        32.49179        -0.12566
C         39.05409        33.44144        -0.29675
C         40.39587        35.78604        -0.19742
C         39.15585        35.00202        -0.35799
C         40.37718        37.17507        -0.05686
C         39.13499        37.91776        -0.21060
C         40.38134        40.11544        -0.10456
C         39.09421        39.31321        -0.17157
C         40.23204        41.52600         0.44400
C         39.07747        42.20536         0.23471
C         40.29850        44.38062         0.53948
C         38.91301        43.68076         0.58162
C         40.18009        45.86094         0.95516
C         38.83546        46.58903         0.55848
C         40.31413        48.59712         0.65814
C         39.28272        48.00809         0.26332
C         42.10282        24.91168        -0.65574
C         40.93389        25.10105         0.04429
C         42.59874        27.28848         0.70728
C         41.25711        26.67117         1.08515
C         42.73851        28.73531         1.14673
C         41.49332        29.54305         1.35845
C         42.88072        31.68423         0.95538
C         41.58214        31.06434         1.48833
C         42.92851        33.06604         0.78605
C         41.75943        33.99426         0.95220
C         42.93112        35.89668         0.16492
C         41.71304        35.06837        -0.14443
C         42.84164        37.29040         0.12369
C         41.59453        37.92484         0.11147
C         42.76906        40.14055         0.60815
C         41.48340        39.34689         0.61846
C         42.73612        41.50697         0.92421
C         41.37195        42.09722         1.28896
C         42.63029        44.34570         1.67841
C         41.36099        43.63016         1.35049
C         42.79306        45.81743         1.30808
C         41.45598        46.58805         1.28264
C         42.81948        48.53500         1.51073
C         41.55875        48.10116         1.08149
C         43.13462        25.53650        -1.01777
C         44.65446        27.62600        -0.76175
C         43.61780        26.71326        -0.27675
C         45.14746        28.71312         0.16179
C         44.14043        29.40580         1.11800
C         45.32444        31.57924         0.66185
C         44.10939        30.92371         0.82086
C         45.38690        33.04998         0.80401
C         44.14185        33.78962         0.58483
C         45.40598        35.92146         0.29084
C         44.15320        35.19721         0.39047
C         45.37741        37.36647         0.06655
C         44.07481        38.11941        -0.08123
C         45.28877        40.20553         0.42750
C         44.06489        39.38505         0.76704
C         45.19110        41.71341         0.41275
C         43.92383        42.25286         1.05074
C         45.17412        44.38727         1.73439
C         43.92485        43.52710         1.87991
C         45.14989        45.70979         2.10634
C         43.85736        46.46075         2.28706
C         43.88088        47.91774         1.79977
C         46.58518        28.13020        -2.14578
C         45.56104        27.47034        -1.79368
C         47.20420        29.17781        -1.42742
C         46.43506        29.46097        -0.14739
C         47.86397        31.60702         0.09727
C         46.64057        30.80746         0.61357
C         47.97389        33.07547         0.46394
C         46.69857        33.83399         0.72196
C         47.78818        35.95214        -0.32438
C         46.62227        35.25879         0.35381
C         47.86669        37.45693         0.04300
C         46.51706        38.12295        -0.01363
C         47.66671        40.38897        -0.27324
C         46.44778        39.58540         0.05862
C         47.75390        41.74981         0.32659
C         46.49517        42.30646         0.92311
C         47.74495        44.52036         1.16564
C         46.47934        43.69118         1.48784
C         47.60646        45.76271         2.02595
C         46.47883        46.27355         2.13873
C         49.27571        29.69504        -2.82584
C         48.32185        29.90563        -1.79164
C         49.80172        32.01210        -1.66207
C         48.77957        31.08936        -0.98324
C         50.23276        33.18727        -0.79491
C         49.19233        33.83231         0.05085
C         50.30508        36.00961        -0.23867
C         49.14622        35.31938        -0.10196
C         50.30458        37.51486        -0.34469
C         48.98556        38.15046        -0.79596
C         50.24303        40.46199        -0.69092
C         48.93690        39.68963        -0.70380
C         50.25307        41.80459         0.02352
C         48.96279        42.37250         0.55062
C         50.26846        44.01983         1.56257
C         48.99020        43.68334         1.23819
C         50.34953        30.20381        -3.21371
C         52.00164        32.23288        -2.71360
C         51.05634        31.14347        -2.24179
C         52.21232        33.22976        -1.99590
C         51.38579        33.89244        -1.01179
C         52.68050        36.09950        -0.67342
C         51.62739        35.14244        -0.19397
C         52.67868        37.32465        -0.75042
C         51.58639        38.28854        -0.55506
C         52.66543        40.56131        -0.66827
C         51.54138        39.67664        -1.14524
C         52.64715        41.55437         0.07055
C         51.58468        42.37874         0.53851
C         51.41680        43.45613         1.35886
O         36.73945        41.93130         0.78272
O         40.50623        46.20426         2.32807
O         36.21524        37.41597        -2.11666
O         46.12026        33.50774         2.01857
O         39.07371        34.09057        -1.60469
O         41.63171        44.09749         2.69981
O         46.64271        42.53281         2.35972
O         31.99228        32.42329         2.38757
O         42.16306        28.87705         2.48726
O         41.15111        34.15237         1.99366
O         50.99610        38.19633         0.75956
O         50.19478        41.70329        -1.44849
O         35.69545        43.91824        -3.14856
O         46.42265        28.34572         0.79186
O         31.67089        33.91202        -1.93751
O         32.12377        39.73725        -0.18443
O         43.71299        26.47848         1.17923
O         49.07273        30.84163         0.41688
O         48.02779        40.24800        -1.70309
O         49.03318        33.36208         1.42906
O         51.64171        30.41128        -1.22605
H         52.39055        29.88505        -1.57091
O         36.51510        35.07998         1.53408
H         36.71015        35.98970         1.84777
O         44.01489        38.58365        -1.46309
H         44.11058        37.80654        -2.05210
O         38.02753        29.06007         3.54639
H         38.25196        29.99664         3.78361
O         33.12099        42.19608        -0.04078
H         32.48824        41.67630         0.50404
O         46.97465        30.49739         1.98108
H         47.90545        30.17808         1.99148
O         40.80160        44.30394        -0.80790
H         40.32430        44.95734        -1.38044
O         39.98050        27.60882        -0.66558
H         39.10078        27.93804        -0.94573
O         41.62535        31.34653         2.91787
H         42.15571        30.62163         3.33008
O         34.34126        41.58534        -3.38947
H         35.02710        42.02653        -3.93513
O         34.29116        39.03779        -2.92748
H         35.08916        38.47908        -3.09437
O         41.28657        26.21087         2.36644
H         42.21215        25.99434         2.61552
O         51.49097        39.57351        -2.54761
H         51.33462        40.47151        -2.91272
O         39.02343        46.06313        -1.76621
H         38.50690        45.89788        -2.58350
O         36.44603        33.45267        -1.75049
H         37.32071        33.73250        -2.11654
O         41.06314        39.16376         1.99853
H         41.84899        38.86969         2.51020
O         34.24247        30.77698         3.85036
H         33.49694        31.40210         3.98514
O         43.93022        43.07685         3.26087
H         42.98650        43.06232         3.55688
O         49.12589        32.58613        -2.79222
H         49.79129        33.04371        -3.35042
O         41.10537        41.64332         2.63930
H         40.32115        42.12876         2.97451
O         48.87083        37.86380        -2.20508
H         48.34564        38.59865        -2.60598
O         43.38285        46.39722         3.60457
H         44.11787        46.56336         4.22907
O         43.34774        45.84622        -0.01262
H         43.67974        46.75146        -0.19877
O         33.75115        35.48917         1.34252
H         34.57380        35.25082         1.83598
O         47.47747        35.74940        -1.72826
H         48.08556        36.32270        -2.26197
O         33.02883        31.79717        -1.08216
H         32.99546        32.24286        -1.95737
O         51.87623        34.75835         1.13942
H         51.95436        35.56225         1.69380
O         38.96319        31.59739         3.06741
H         39.90597        31.67765         3.37020
O         40.85149        40.27037        -1.47510
H         40.18997        40.79046        -1.97691
O         38.40785        43.79660         1.91829
H         37.56975        43.27570         1.95497
O         34.10661        38.24325         0.66566
H         33.22198        38.61291         0.89277
O         41.07286        32.35424        -1.14858
H         40.85504        33.03252        -1.83230
O         44.61241        29.27244         2.45792
H         45.57079        29.53101         2.47960
O         45.13770        42.11240        -0.99226
H         44.42002        41.60389        -1.42699
O         47.60150        44.91678        -0.19908
H         48.42073        45.36613        -0.49322
O         31.86151        37.78544        -3.24648
H         31.79588        36.84087        -3.49676
O         44.13458        38.98553         2.16729
H         44.21665        39.79977         2.70998
O         42.01040        34.55193        -1.48334
H         42.01600        35.32547        -2.08585
O         48.32011        37.56965         1.40970
H         47.65393        37.15540         1.99811
O         37.96573        46.54163         1.65386
H         38.49365        46.69782         2.46904
