         272
 CSIRO Nanostructure Databank - Neutral Graphene Oxide Data Set
C        -10.28992         0.43056        -2.49764
C         -8.93090         1.07969        -2.40077
C         -8.26584         0.73741        -1.05305
C         -7.03327         1.50363        -0.71378
C         -5.96707         0.87232         0.14221
C         -4.63673         1.54329         0.14650
C         -3.39196         0.72154         0.31758
C         -2.26823         1.45375         0.99601
C         -1.22273         0.71587         1.77901
C          0.01864         1.46720         2.21930
C          1.34335         0.73921         2.07264
C          2.36216         1.52955         1.27339
C          3.33069         0.85400         0.34217
C          4.49504         1.65774        -0.28151
C          5.76669         0.85696        -0.61902
C          6.85680         1.63026        -1.33268
C          8.05903         0.87768        -1.83916
C          9.45627         1.52933        -1.76095
C         10.44868         0.53676        -1.17062
C         -8.95555         2.59370        -2.52975
C         -7.86995         3.33607        -2.18591
C         -6.61552         2.55111        -1.78238
C         -5.47199         3.48270        -1.33023
C         -4.27208         2.73376        -0.75648
C         -3.23585         3.61671        -0.00706
C         -2.15376         2.93896         0.77384
C         -1.29848         3.69217         1.76904
C         -0.02319         2.97015         2.16562
C          1.29341         3.72354         2.09197
C          2.54750         2.96552         1.72221
C          3.89765         3.67306         1.48243
C          4.86942         2.94340         0.50545
C          5.98125         3.71021        -0.13458
C          6.96761         3.09392        -1.08407
C          8.30810         3.74573        -0.96753
C          9.49934         2.81230        -0.89096
C         -7.95781         4.78944        -2.02708
C         -6.97316         5.57095        -1.50508
C         -5.64653         4.95502        -1.22814
C         -4.71282         5.70412        -0.32457
C         -3.58096         5.02486         0.37604
C         -2.52496         5.88141         1.07379
C         -1.36783         5.19516         1.79945
C         -0.06913         5.97934         2.01829
C          1.25031         5.23987         2.02769
C          2.38337         5.87982         1.24198
C          3.73048         5.19485         1.17231
C          4.83461         5.91284         0.47057
C          5.90287         5.20971        -0.35809
C          7.25258         5.89723        -0.34410
C          8.41719         5.04315        -0.55444
C         -7.16620         7.04664        -1.15812
C         -5.84856         7.84104        -1.19061
C         -4.60678         7.14848        -0.69540
C         -3.38336         7.92275        -0.29618
C         -2.49986         7.35463         0.77818
C         -1.31252         8.18392         1.18782
C         -0.09534         7.48506         1.72180
C          1.28710         8.19902         1.61194
C          2.24998         7.30668         0.79365
C          3.38263         8.02418         0.10405
C          4.65328         7.26931        -0.13893
C          5.94024         7.98197        -0.46558
C          7.23663         7.26054        -0.35737
C         -5.81932         9.32376        -1.11097
C         -4.68964        10.02577        -0.86180
C         -3.38656         9.41204        -0.50777
C         -2.31783        10.20958         0.15583
C         -1.27783         9.61988         0.78871
C         -0.10696        10.39442         1.37145
C          1.17799         9.63622         1.07951
C          2.24747        10.26715         0.54915
C          3.42162         9.52023         0.02615
C          4.74811        10.15213        -0.17054
C          5.87950         9.45991        -0.43543
C        -10.56671        -0.74153        -1.91588
C         -9.66984        -1.48005        -0.95140
C         -8.48364        -0.63220        -0.45180
C         -7.34338        -1.34575         0.22349
C         -6.02601        -0.62345         0.46885
C         -4.75278        -1.41514         0.60311
C         -3.41457        -0.75832         0.38929
C         -2.06085        -1.44604         0.70817
C         -1.21167        -0.79983         1.81404
C          0.04836        -1.53947         2.17563
C          1.36012        -0.75948         2.06177
C          2.37108        -1.43806         1.15141
C          3.31818        -0.66860         0.26357
C          4.48802        -1.39947        -0.39492
C          5.73917        -0.63160        -0.76377
C          6.71531        -1.38227        -1.70592
C          7.97759        -0.59251        -2.09326
C          9.32423        -1.32397        -2.35864
C         10.36354        -0.78073        -1.38574
C         -9.19904        -2.83113        -1.46676
C         -8.24242        -3.55172        -0.81369
C         -7.46366        -2.91150         0.35053
C         -6.09179        -3.65107         0.68240
C         -4.77784        -2.89540         0.38041
C         -3.48405        -3.65898         0.50660
C         -2.15728        -2.98398         0.73939
C         -1.00158        -3.76083         1.27123
C          0.07280        -3.09911         2.11848
C          1.42032        -3.72773         1.79242
C          2.59971        -2.90150         1.41315
C          3.80941        -3.59994         0.82895
C          4.65449        -2.87550        -0.18008
C          5.97498        -3.54717        -0.47022
C          7.04979        -2.76781        -1.14463
C          8.16129        -3.51711        -1.80168
C          9.22384        -2.81801        -2.32500
C         -8.22386        -5.01334        -0.89944
C         -7.25666        -5.77922        -0.32778
C         -6.01453        -5.07143         0.07793
C         -4.75076        -5.83956         0.29904
C         -3.60271        -5.11280         1.02242
C         -2.30316        -5.90604         0.96976
C         -1.05528        -5.24600         1.43406
C          0.11471        -5.92886         1.63233
C          1.39977        -5.17251         1.27288
C          2.73795        -5.89880         1.45081
C          3.93391        -5.09172         0.97002
C          5.07470        -5.82223         0.28812
C          5.84633        -5.04081        -0.76434
C          7.12042        -5.71762        -1.20407
C          8.16102        -4.93796        -1.76983
C         -7.34519        -7.30299        -0.30441
C         -6.04578        -8.06063        -0.03573
C         -4.77168        -7.34457         0.28156
C         -3.76286        -8.05473         1.16810
C         -2.39083        -7.38682         1.05039
C         -1.21449        -8.16589         1.59305
C          0.12620        -7.41965         1.63270
C          1.40347        -8.14094         1.28735
C          2.73811        -7.39330         1.28370
C          3.94912        -8.12854         0.73197
C          5.14833        -7.31487         0.28271
C          6.26482        -8.04048        -0.48987
C          7.20619        -7.09580        -1.19386
C         -6.11443        -9.48247         0.39582
C         -4.99337       -10.17993         0.71395
C         -3.69556        -9.53615         0.86829
C         -2.50176       -10.20722         0.85880
C         -1.20716        -9.54226         0.97822
C         -0.05165       -10.09574         0.52181
C          1.21239        -9.30226         0.32385
C          2.43599       -10.11408         0.05859
C          3.74503        -9.47415         0.05183
C          4.66514        -9.85727        -1.04770
C          5.75667        -9.15181        -1.37319
O         -1.01822         8.10427         2.63009
O          2.39556        -3.33924         2.79016
O          5.05813         7.31596        -1.52066
O         -8.29546         1.80673        -0.05926
O          5.82611        -6.52574         1.31956
O          7.07048        -2.99435         0.30367
O         -0.15579         2.24152         3.42332
O          2.06396         1.42016        -0.15204
O         -1.89856         3.45161        -0.56801
O         -3.21425         6.85004         1.93032
O          1.82648         8.29397         2.88402
O         -1.08076        -3.48687        -0.15794
O         -3.24442        -0.07564        -0.89457
O          4.79430         5.92786         1.89949
O         -4.02355        -3.27170        -0.79456
O          4.00761        -2.36630        -1.37809
O         -5.05783        -5.29755        -1.00791
O          2.05208        -1.17570        -0.24710
O          6.19280         3.05147         1.13218
O         -4.88312         7.28955        -2.12535
O         -2.09895        -6.74218        -0.21747
O         -5.02454         4.35105        -2.40163
O         -2.41058         1.22175         2.44182
O         -0.97322        -1.21410         3.17150
O         -5.52914         1.72871         1.25649
O          7.72271         0.35251        -3.17456
O         -4.98297        -7.89019        -1.04168
O          0.69580         5.79154         3.24303
O          6.32123         0.00109         0.41743
O         -8.37623        -0.65866         0.98961
O          0.91379        -8.17985         2.64835
O          1.84838        -0.02185         3.20638
O         -2.73162         8.48313        -1.46336
O         -8.35908        -3.18358         1.38679
O         -4.25472        -7.89000         2.50975
O         -1.89564         4.38827         2.88884
O          4.33088        -9.32934         1.43389
O          2.96478        -6.74447         2.58091
O         -5.46436        -0.95267         1.77788
O          6.45551         2.61419        -2.34626
O          2.17577         3.18334         3.11222
O          4.56777        -4.18266         1.92425
O         -4.87493         5.23418         1.04423
O          2.97319         8.69457        -1.12133
O         -6.04072         1.83862        -2.85384
O          4.89545        -5.11805        -1.92400
O          5.43457         5.36514        -1.69365
O          1.76944         6.22921        -0.06505
O        -10.50124        -1.82250         0.17593
H         -9.89054        -2.16440         0.88391
O         -0.23309        -3.56653         3.44813
H          0.43836        -3.20032         4.06362
O         -0.06237        11.71917         0.86321
H         -0.02435        11.67951        -0.11432
O         -3.82916        -5.03770         2.43845
H         -4.71887        -4.63480         2.62270
O         -1.48740        -8.34805         3.10627
H         -0.60151        -8.61063         3.48672
O         -8.25443        -7.68625         0.73571
H         -9.03528        -7.09588         0.70870
O         -6.11918        -3.80596         2.11301
H         -7.06638        -3.61092         2.38434
O         -8.14973         0.47838        -3.45587
H         -7.27443         0.96412        -3.51611
O          9.87597         1.84307        -3.10514
H          9.07993         2.07741        -3.63037
O          6.00563        -1.63327        -2.93486
H          6.18707        -0.87618        -3.54056
O          5.50198        -4.42157        -3.03781
H          5.09795        -3.51188        -2.99453
O         -2.35523        -9.46503         3.39727
H         -3.76322        -8.54618         3.08943
O          4.57876         3.59573         2.73862
H          3.94052         3.82800         3.45106
O          7.09975        -8.68527         0.50943
H          7.12929        -8.08575         1.28965
O          1.04699        -8.58382        -0.97226
H          0.61299        -9.19070        -1.61050
O          9.79354        -0.99020        -3.67706
H          9.92173        -0.01017        -3.71069
O          4.03226         2.11227        -1.56408
H          3.04811         2.15632        -1.55648
O         -7.74344         7.15189         0.15225
H         -7.23851         6.58794         0.77532
O          9.53934         2.35329         0.46990
H          9.40267         3.11070         1.07581
O          1.35467        -5.05539        -0.18162
H          0.50722        -4.63881        -0.46759
O         -1.17268        -1.11077        -0.38270
H         -1.59525        -1.36865        -1.23140
O         -3.61196         2.19680        -1.90340
H         -4.32354         1.97463        -2.56998
H         11.10541        -1.46848        -0.95414
H         11.24931         0.93782        -0.53196
H         10.44585         3.37342        -1.13183
H          9.41756         5.48372        -0.41296
H          8.16386         7.84831        -0.42937
H          6.83010        10.00125        -0.55438
H          4.80079        11.24838        -0.09098
H          2.17841        11.34042         0.30714
H         -0.23904        10.45897         2.48283
H         -2.30835        11.30030         0.00235
H         -4.74821        11.12383        -0.80487
H         -6.76507         9.86343        -1.27016
H         -7.89515         7.50902        -1.87040
H         -8.93194         5.24630        -2.26592
H         -9.89980         3.08828        -2.80955
H        -11.03491         0.90300        -3.15675
H        -11.55961        -1.19488        -2.06092
H         -9.81449        -3.33485        -2.23027
H         -9.09759        -5.49493        -1.36934
H         -7.76317        -7.64443        -1.29880
H         -7.08989        -9.98871         0.36078
H         -5.05716       -11.26311         0.89919
H         -2.48842       -11.28607         0.63989
H         -0.08319       -11.09741         0.06529
H          2.30790       -10.99620        -0.59098
H          4.35359       -10.70738        -1.67378
H          6.37563        -9.45498        -2.23002
H          8.12683        -7.55940        -1.58383
H          9.03418        -5.46336        -2.18726
H         10.05273        -3.37110        -2.79274
