         223
 CSIRO Nanostructure Databank - Neutral Graphene Oxide Data Set
C        -11.14510         0.85380         0.41573
C         -9.94739         1.62395         0.11696
C         -8.74532         0.88748        -0.32553
C         -7.42671         1.64981        -0.35455
C         -6.12724         0.86306        -0.35559
C         -4.97232         1.54400         0.39997
C         -3.79794         0.82620        -0.26700
C         -2.50290         1.56784        -0.29056
C         -1.30380         0.81813        -0.50081
C         -0.05037         1.54146        -0.49247
C          1.14290         0.83518        -0.52766
C          2.47200         1.50863        -0.49565
C          3.45068         0.71728         0.40551
C          4.86240         1.37364         0.33529
C          5.98263         0.60743         1.01735
C          7.28570         1.39994         1.06666
C          8.50322         0.62509         0.85326
C          9.69935         1.29499         0.59786
C         10.92091         0.53653         0.37796
C         -9.90778         2.99760         0.19827
C         -8.66632         3.74919         0.15942
C         -7.44443         3.05453         0.06142
C         -6.20851         3.74583         0.58027
C         -4.93532         3.03703         0.20185
C         -3.77807         3.68011        -0.10436
C         -2.51559         2.95495        -0.23797
C         -1.27181         3.68116        -0.21677
C         -0.06298         2.97974        -0.30735
C          1.20694         3.67967        -0.17565
C          2.40761         2.95864        -0.14183
C          3.60464         3.61473         0.40799
C          4.81096         2.82013         0.79787
C          6.08580         3.55434         0.93156
C          7.31096         2.87992         0.89251
C          8.57710         3.53067         0.60364
C          9.71332         2.71838         0.46037
C         -8.65956         5.16487         0.32034
C         -7.45825         5.94092         0.34234
C         -6.18771         5.22886         0.31393
C         -4.99444         5.87509         0.13735
C         -3.77326         5.16009        -0.39812
C         -2.47678         5.84439        -0.02713
C         -1.30006         5.11540        -0.00041
C         -0.02639         5.79214         0.30859
C          1.21522         5.07586         0.08557
C          2.45804         5.83318        -0.01901
C          3.75319         5.06579         0.12937
C          4.94579         5.77080         0.60806
C          5.97136         4.96875         1.11500
C          7.82573         5.92829         0.69203
C          8.69248         4.93896         0.25116
C         -7.46692         7.33578         0.21518
C         -6.23972         8.11101         0.37880
C         -4.91154         7.32503         0.32777
C         -3.65235         8.02914         0.00128
C         -2.47488         7.29157        -0.03313
C         -1.19152         7.99697        -0.22262
C          0.04201         7.31948         0.23278
C          1.33463         8.01967         0.09724
C          2.52043         7.29374         0.16632
C          3.80643         7.93313         0.23892
C          5.01809         7.20326         0.45136
C          6.29908         7.88518         0.32143
C          7.55356         7.25352         0.21829
C         -6.13135         9.54461         0.03597
C         -4.93256        10.16871        -0.06851
C         -3.64371         9.47816        -0.04344
C         -2.45693        10.19107        -0.08959
C         -1.15813         9.53302        -0.25660
C          0.13133        10.18262         0.02960
C          1.33515         9.46615         0.06376
C          2.62303        10.09976         0.08122
C          3.81214         9.37274         0.14248
C          5.09619        10.02784         0.06441
C          6.25667         9.31365         0.08496
C        -11.17879        -0.50114         0.42163
C         -9.98837        -1.33930         0.13737
C         -8.70614        -0.61641        -0.20561
C         -7.42436        -1.25617         0.18415
C         -6.21135        -0.58564         0.12443
C         -4.96870        -1.29714         0.27996
C         -3.64638        -0.57751         0.29771
C         -2.49834        -1.34347        -0.31435
C         -1.32497        -0.58788        -0.64851
C         -0.11179        -1.29952        -1.08521
C          1.21509        -0.57225        -0.92724
C          2.44963        -1.36227        -0.63183
C          3.48135        -0.76207         0.04990
C          4.60423        -1.47609         0.76200
C          5.97685        -0.85734         0.71616
C          7.15030        -1.55508         0.54290
C          8.43261        -0.85358         0.89122
C          9.73911        -1.60008         0.74767
C         10.94759        -0.81608         0.43389
C         -9.92823        -2.72919         0.63294
C         -8.72672        -3.40518         0.75330
C         -7.47002        -2.61546         0.72730
C         -6.13710        -3.39191         0.78458
C         -4.92541        -2.68422         0.38152
C         -3.72121        -3.43647         0.11471
C         -2.51095        -2.72730        -0.25476
C         -1.19339        -3.46756        -0.30654
C         -0.13471        -2.81424        -1.20411
C          1.21925        -3.48462        -0.99238
C          2.42799        -2.81319        -0.94006
C          3.70680        -3.54400        -0.96260
C          4.95017        -2.94759        -1.13224
C          6.18662        -3.58246        -0.64080
C          7.21855        -2.93679         0.03069
C          8.49249        -3.66821         0.15084
C          9.67697        -3.02598         0.38105
C         -8.63233        -4.80796         1.01264
C         -7.41745        -5.52802         0.97394
C         -6.17047        -4.85205         0.74819
C         -4.98071        -5.54903         0.48541
C         -3.77313        -4.83726         0.15452
C         -2.62342        -5.62930        -0.33642
C         -1.33650        -4.92877        -0.69035
C         -0.08256        -5.70420        -0.72913
C          1.16389        -4.97438        -1.06377
C          2.44662        -5.73914        -0.92851
C          3.70172        -4.98907        -0.52011
C          4.92680        -5.75498        -1.01655
C          6.25001        -5.03500        -0.93748
C          7.46077        -5.79646        -0.57560
C          8.51623        -5.10745        -0.07726
C         -7.37627        -6.95251         1.08016
C         -6.18805        -7.66633         0.90857
C         -4.96753        -6.98778         0.56416
C         -3.76595        -7.71694         0.38695
C         -2.55937        -7.06543        -0.02349
C         -1.33817        -7.74855        -0.09750
C         -0.09242        -7.06632        -0.42981
C          1.15423        -7.80327        -0.31351
C          2.39587        -7.15982        -0.51031
C          3.60754        -7.86504        -0.38416
C          4.87682        -7.24896        -0.83646
C          6.16593        -8.01910        -0.66096
C          7.52523        -7.30745        -0.71876
C         -6.14931        -9.10243         1.06444
C         -4.98553        -9.80111         0.93829
C         -3.74510        -9.13873         0.61151
C         -2.53869        -9.82609         0.52925
C         -1.31206        -9.15790         0.23017
C         -0.09401        -9.84414         0.28866
C          1.14816        -9.18347         0.06628
C          2.37549        -9.86288         0.25176
C          3.60395        -9.22576         0.02619
C          4.86824        -9.89855         0.28141
C          6.06819        -9.31829         0.03674
O         -1.07969         8.68202        -1.49217
O          5.57914        -5.33409        -2.22659
O          7.02056         5.57679         1.80388
O         -5.66817         0.85593        -1.74002
O          3.75055        -5.07386         0.93445
H          3.89959        -4.16695         1.30280
O          2.97406         0.74795         1.75606
H          3.10874         1.66161         2.11952
O         -4.20643         0.67357        -1.67814
O         -0.64736        -3.43033         1.04294
H         -1.30935        -3.80169         1.66281
O         -0.09374         6.64418         1.52136
O         -0.51974        -3.12408        -2.55711
H         -0.00514        -2.53594        -3.15268
O          5.47483        -7.99586        -1.94769
O          3.85035         3.22039         1.84030
O         -2.28495        -5.26146        -1.73702
O         -3.22581        -0.44680         1.70914
H         -3.29021        -1.33513         2.12056
O          2.94022         1.40032        -1.90016
H          2.27469         1.85121        -2.46385
O         -6.31674         3.67036         2.04769
H         -5.96695         2.78544         2.32192
O          5.35980         1.40926        -1.02630
H          4.62233         1.64200        -1.64454
O          5.12414        -1.76069        -1.76816
H          4.27637        -1.44211        -2.14121
O         -5.48719         7.76864         1.59677
H         -3.65085         6.18927        -2.11236
O         -5.14256         1.28142         1.80867
H         -4.36305         0.76593         2.14230
O          8.40113        -7.84560         0.27539
H          8.11180        -7.53160         1.15650
O         -9.47383        -1.26641        -1.26416
O         -8.20413         1.39617        -1.57616
O          3.28802         5.41643        -1.20022
O          6.47728         1.01809         2.28946
O         -6.73576        -2.78530         1.98318
O          1.90321        -5.49885        -2.24757
O          4.39218        -2.43198         1.50474
O          9.13417        -1.38079         2.08028
O         -3.86698         5.26630        -1.86013
O          0.58419        -0.75347        -2.25352
H         11.86912        -1.36393         0.18621
H         11.83430         1.09628         0.12831
H         10.67189         3.19656         0.20840
H          9.49111         5.20806        -0.45732
H          8.37345         7.82836        -0.24208
H          7.21735         9.83916        -0.02355
H          5.12278        11.12107        -0.05395
H          2.67230        11.19651         0.00327
H          0.15139        11.27704         0.14193
H         -2.48067        11.28543         0.02728
H         -4.90922        11.25183        -0.26300
H         -7.06067        10.11949        -0.09598
H         -8.40584         7.86278        -0.01303
H         -9.62523         5.69097         0.36779
H        -10.83026         3.54751         0.44142
H        -12.05710         1.41763         0.66436
H        -12.11112        -1.01980         0.69174
H        -10.87685        -3.26366         0.79527
H         -9.56919        -5.37420         1.12702
H         -8.30594        -7.49821         1.30060
H         -7.08469        -9.62541         1.31232
H         -4.97369       -10.89124         1.08405
H         -2.51466       -10.90797         0.72924
H         -0.08881       -10.91058         0.55979
H          2.36072       -10.91636         0.56865
H          4.82827       -10.89360         0.74975
H          7.00316        -9.81726         0.33098
H          7.98650        -7.54989        -1.71206
H          9.43534        -5.64916         0.19313
H         10.61722        -3.59740         0.35162
