         420
 CSIRO Nanostructure Databank - Neutral Graphene Oxide Data Set
C         27.98076        27.41260         1.33953
C         27.93428        28.76380         1.15000
C         26.69150        29.50100         1.07300
C         27.86432        31.50650         0.22306
C         26.64563        30.78892         0.65594
C         27.84411        33.03348        -0.05020
C         26.60527        33.81546         0.12376
C         27.80193        35.96177         0.19844
C         26.59674        35.16982         0.23672
C         27.80031        37.35659         0.24994
C         26.60884        38.15223         0.18381
C         27.88515        40.27463         0.18554
C         26.65377        39.52093         0.16795
C         27.89416        41.70799         0.07826
C         26.68976        42.45527        -0.03324
C         27.93549        44.54011        -0.13446
C         26.70856        43.82897        -0.14004
C         27.95385        45.95781        -0.27762
C         30.40160        27.30283         0.96943
C         29.24668        26.70964         1.36643
C         30.35386        28.72472         0.44457
C         29.24267        29.52188         1.12929
C         30.35129        31.61073         0.36534
C         29.16896        30.91188         0.52801
C         30.33873        33.06120         0.18913
C         29.12501        33.74310         0.07390
C         30.37479        35.95399         0.09964
C         29.07333        35.21916        -0.01666
C         30.36259        37.38875         0.51701
C         29.05810        38.11568         0.49150
C         30.35859        40.26489         0.27010
C         29.10480        39.58212         0.30691
C         30.37868        41.69024         0.17610
C         29.14425        42.40482         0.09186
C         30.40635        44.54102         0.00795
C         29.16195        43.82893        -0.00287
C         30.39095        45.98012        -0.10902
C         29.14122        46.64730        -0.28011
C         32.77358        24.62188        -0.19254
C         31.63915        25.24378         0.19184
C         32.91800        27.33388         0.58877
C         31.70017        26.52894         0.98882
C         32.88453        28.77212         0.56825
C         31.65774        29.48648         0.55851
C         32.85867        31.61473         0.40559
C         31.62949        30.89272         0.47189
C         32.84471        33.06919         0.44919
C         31.58949        33.78553         0.34806
C         32.78359        35.95148         0.59168
C         31.60510        35.19346         0.36618
C         32.81088        37.36086         0.45131
C         31.62963        38.13054         0.36288
C         32.83815        40.29138         0.21098
C         31.61181        39.54935         0.27793
C         32.86736        41.68956         0.19070
C         31.62222        42.41363         0.14581
C         32.93457        44.58143        -0.12808
C         31.62615        43.82381         0.05583
C         32.82212        45.97544         0.51695
C         31.61219        46.70509        -0.05138
C         32.90260        48.73822        -0.54576
C         31.69723        48.04376        -0.45718
C         35.30438        23.16028        -0.65747
C         35.26868        24.52520        -0.20636
C         34.08572        25.21862         0.02401
C         35.35472        27.36594         0.24804
C         34.10619        26.64702         0.33981
C         35.35457        28.78108         0.34160
C         34.10986        29.49267         0.45443
C         35.35264        31.63362         0.22645
C         34.08105        30.90741         0.38627
C         35.33146        33.12668         0.43434
C         34.03061        33.77041         0.65450
C         35.33113        35.95297         1.01360
C         34.01219        35.21436         0.92683
C         35.35952        37.38154         0.66193
C         34.10638        38.04882         0.28841
C         35.37448        40.27647         0.36118
C         34.11143        39.55393         0.11207
C         35.37501        41.65485         0.44937
C         34.14114        42.41754         0.29956
C         35.41579        44.53523         0.80689
C         34.16215        43.80087         0.30436
C         35.43400        46.03713         0.51090
C         34.12115        46.78202         0.39436
C         35.36922        48.81101        -0.30460
C         34.12879        48.13858        -0.19867
C         35.42859        50.25526        -0.45068
C         37.74377        23.22671        -0.96083
C         36.47743        22.53818        -0.99593
C         37.79374        24.52384        -0.49515
C         36.59197        25.16003         0.16778
C         37.78641        27.37259        -0.06521
C         36.57652        26.66708         0.06842
C         37.81081        28.79276         0.13290
C         36.59964        29.48448         0.32646
C         37.83462        31.60066         0.53045
C         36.63453        30.91571         0.40913
C         37.88526        33.09770         0.36340
C         36.59801        33.81555         0.74393
C         37.81878        35.92779         0.86769
C         36.59581        35.18801         0.89824
C         37.81554        37.31631         0.65871
C         36.56551        38.05720         0.54506
C         37.82955        40.15673         0.28290
C         36.59940        39.49825         0.40183
C         37.87027        41.59534         0.16571
C         36.69825        42.35936         0.72858
C         37.76138        44.46278        -0.19666
C         36.68096        43.82785         0.35172
C         37.83800        45.92852        -0.31261
C         36.64925        46.69106        -0.01871
C         37.85635        48.82143        -0.34177
C         36.59401        48.07387        -0.24422
C         37.86641        50.21932        -0.92862
C         36.57899        50.94195        -0.63836
C         40.23880        20.48426        -1.85122
C         39.05026        21.12319        -1.74557
C         40.21811        23.12568        -0.80379
C         39.00263        22.62988        -1.59146
C         40.26391        24.62934        -0.81339
C         39.02826        25.30030        -0.56560
C         40.20582        27.49711        -0.79390
C         39.00375        26.68442        -0.39407
C         40.26109        28.83356        -0.10087
C         39.06314        29.50326         0.21534
C         40.32486        31.55572         0.85346
C         39.09051        30.89655         0.55771
C         40.30573        33.01126         1.14430
C         39.12164        33.70227         0.98062
C         40.29367        35.80439         0.54556
C         39.09067        35.20016         1.21789
C         40.27761        37.26286         0.21427
C         39.03332        38.02088         0.40358
C         40.26250        40.06688        -0.21270
C         39.04914        39.40162         0.17675
C         40.17255        41.44459        -0.70051
C         38.97611        42.22708        -0.33802
C         40.21790        44.35830        -1.10129
C         38.93584        43.66682        -0.67642
C         40.21494        45.85643        -1.19374
C         39.01938        46.57378        -0.69128
C         40.34160        48.77809        -0.92335
C         39.14238        48.02749        -0.53252
C         40.36848        50.17961        -0.72941
C         39.15958        50.93355        -0.59160
C         40.44635        52.96527        -0.24401
C         39.22148        52.31263        -0.36030
C         42.75777        20.56893        -2.09818
C         41.50705        21.17606        -1.68528
C         42.74111        23.20100        -1.05187
C         41.51699        22.48834        -1.22286
C         42.74574        24.59113        -0.88238
C         41.49011        25.31594        -0.82508
C         42.71743        27.43517        -0.67443
C         41.50523        26.73780        -0.71944
C         42.72440        28.84009        -0.29860
C         41.49261        29.48051         0.09737
C         42.79308        31.13376         1.26932
C         41.51729        30.76738         0.73935
C         42.79290        33.30138         1.85811
C         41.53899        33.83269         1.40374
C         42.71016        36.03472         1.10200
C         41.54342        35.16406         0.98282
C         42.73434        37.37563         0.48224
C         41.54377        38.01321         0.17342
C         42.74544        40.12939        -0.27428
C         41.50103        39.40311        -0.16511
C         42.73684        41.49062        -0.61841
C         41.51547        42.19983        -0.98184
C         42.74744        44.38480        -1.09884
C         41.53617        43.68052        -1.03896
C         42.79669        45.84226        -1.25768
C         41.51348        46.58383        -1.43449
C         42.86000        48.72346        -1.02704
C         41.56274        48.11477        -1.50293
C         42.86847        50.12773        -0.76980
C         41.63637        50.85803        -0.66190
C         42.92012        52.91778        -0.27478
C         41.66129        52.25333        -0.40007
C         43.94567        21.17114        -1.85156
C         45.27289        23.22372        -1.09841
C         44.01274        22.39647        -0.96739
C         45.25045        24.62859        -1.00399
C         43.98564        25.33003        -0.87431
C         45.21349        27.49365        -0.94815
C         43.96032        26.72539        -0.78606
C         45.18824        28.98950        -0.71073
C         43.93597        29.51810        -0.13730
C         45.30073        31.13177         1.14363
C         43.99360        30.61201         0.77951
C         45.29771        33.28091         1.68992
C         44.03143        33.93764         1.67135
C         45.27608        36.03481         0.99143
C         44.03927        35.37748         1.41610
C         45.23556        37.40514         0.68058
C         43.97617        38.09872         0.44687
C         45.19382        40.26633         0.35601
C         43.96317        39.44902         0.08524
C         45.27631        41.52268        -0.46969
C         43.99805        42.22211        -0.81426
C         45.25200        44.33916        -1.01320
C         44.00719        43.68303        -0.97220
C         45.29397        45.77650        -1.48960
C         43.99805        46.52948        -1.24362
C         45.30770        48.66675        -0.95677
C         44.04576        47.98288        -1.10267
C         45.33258        50.07257        -0.76232
C         44.10580        50.81238        -0.63055
C         44.09561        52.22047        -0.38570
C         47.70655        23.24568        -1.09779
C         46.50739        22.55194        -1.15467
C         47.73015        24.65237        -0.98018
C         46.48998        25.36497        -0.96305
C         47.70958        27.50902        -0.64427
C         46.50327        26.78428        -0.87261
C         47.72222        28.91549        -0.38715
C         46.49248        29.79002        -0.59435
C         47.68250        31.67129         0.60890
C         46.46004        30.88022         0.45855
C         47.68257        33.07925         0.89243
C         46.48010        33.85285         1.17437
C         47.70492        35.97246         0.73035
C         46.48038        35.28052         0.93588
C         47.70847        37.39080         0.59498
C         46.47488        38.10242         0.50923
C         47.69564        40.21913         0.27591
C         46.48397        39.49608         0.31128
C         47.67871        41.63467         0.06205
C         46.50804        42.31569        -0.32914
C         47.79362        44.32498        -1.08196
C         46.47509        43.66735        -0.74582
C         47.75709        45.83049        -1.01794
C         46.54953        46.52136        -1.09087
C         47.79697        48.63528        -0.93507
C         46.55140        47.94147        -1.00221
C         47.77547        50.05513        -0.80018
C         46.59369        50.73946        -0.69692
C         50.21773        24.70763        -0.88702
C         48.96854        25.38078        -0.83917
C         50.18322        27.48566        -0.40049
C         48.95575        26.78446        -0.61554
C         50.16932        28.89231        -0.12919
C         48.91733        29.59465        -0.06912
C         50.14838        31.70118         0.39080
C         48.90728        31.00542         0.28444
C         50.15081        33.11675         0.58830
C         48.91265        33.81330         0.74396
C         50.16091        35.97345         0.71272
C         48.93230        35.24505         0.74016
C         50.17101        37.40569         0.70808
C         48.93628        38.11867         0.59379
C         50.17561        40.26241         0.59590
C         48.93934        39.53351         0.48581
C         50.19128        41.67504         0.46610
C         48.92033        42.38504         0.26768
C         50.27868        44.37974        -0.49622
C         48.95369        43.80270        -0.24556
C         50.26439        45.72302        -1.10732
C         49.00298        46.50979        -1.02559
C         50.31787        48.59430        -1.03669
C         49.03509        47.91372        -1.02261
C         51.40210        25.38363        -0.70414
C         52.66302        27.48167        -0.25203
C         51.42238        26.77889        -0.44730
C         52.64170        28.88507        -0.02756
C         51.39543        29.58979         0.04638
C         52.62456        31.71567         0.37749
C         51.39229        31.00501         0.26426
C         52.62418        33.12992         0.54484
C         51.38596        33.83495         0.61542
C         52.61857        35.98076         0.81528
C         51.39270        35.26123         0.71578
C         52.61412        37.40132         0.91379
C         51.39122        38.12902         0.82515
C         52.59116        40.31215         1.13813
C         51.39946        39.57023         0.84226
C         52.60224        41.73555         0.94232
C         51.41164        42.39100         0.48002
C         52.71120        44.45659        -0.15687
C         51.43644        43.76041        -0.04100
C         52.79413        45.76310        -0.68449
C         51.58303        46.46995        -1.16925
C         51.50327        47.93995        -1.07920
C         55.10213        27.48328        -0.13176
C         53.91795        26.80458        -0.29054
C         55.10853        28.89174         0.06902
C         53.87308        29.59606         0.12355
C         55.10642        31.70649         0.45034
C         53.87364        31.01125         0.31630
C         55.10086        33.13932         0.64135
C         53.86300        33.84211         0.66797
C         55.07025        35.96036         1.07821
C         53.85745        35.26083         0.84623
C         55.03335        37.37537         1.39559
C         53.81913        38.10875         1.22563
C         54.85825        40.02521         2.23240
C         53.76422        39.51352         1.50890
C         54.86418        42.28044         1.94335
C         53.79028        42.58717         1.09389
C         55.09431        44.60005         0.45241
C         53.87019        43.86014         0.42985
C         55.17147        45.86017        -0.19872
C         54.04141        46.43320        -0.73593
C         56.32706        29.60592         0.21292
C         56.32296        30.97070         0.39670
C         56.30085        33.87469         0.80788
C         56.28625        35.23685         1.03919
C         56.15883        38.01578         1.95518
C         56.04829        39.31358         2.43412
C         56.07384        43.00514         1.97709
C         56.21361        44.12427         1.18451
O         40.67943        46.15322        -2.57381
O         43.29632        36.10197         2.45939
O         29.67773        37.66713         1.78290
O         44.81548        41.47094        -1.84323
O         42.81417        31.99992         2.36752
O         27.77603        32.05289        -1.13647
O         45.35908        32.00109         2.25386
O         34.19602        38.67115        -1.06093
O         40.17259        36.20019        -0.84012
O         29.79572        35.72416        -1.22423
O         40.70737        41.59843        -2.04468
O         34.58002        35.62596         2.24564
O         39.25891        43.84981        -2.09897
O         38.69849        48.56504         0.80185
O         54.74122        41.25602         2.89152
O         34.87787        46.79098         1.65402
O         48.69195        43.55813         1.16250
O         50.98685        45.87997        -2.37371
O         35.38541        32.52448        -0.95457
O         45.06009        28.46473        -2.07221
O         48.09225        43.95275        -2.45751
H         47.40996        44.37354        -3.02710
O         39.10118        23.18126        -2.93230
H         38.31235        22.89779        -3.43873
O         40.00391        27.79727        -2.22959
H         40.80705        28.26463        -2.54522
O         31.90866        26.13031         2.38392
H         32.77070        25.66474         2.43035
O         39.99499        22.72475         0.58796
H         40.74446        23.06769         1.11898
O         44.05809        21.86937         0.41649
H         43.28368        21.27541         0.51993
O         35.33944        44.39911         2.25792
H         34.79629        45.16617         2.57091
O         45.40799        45.68358        -2.95954
H         44.58112        45.27322        -3.29453
O         38.02961        33.32154        -1.08068
H         37.17324        33.03632        -1.48660
O         29.65060        29.68353         2.51877
H         28.88368        30.02120         3.02580
O         33.09975        44.82424        -1.56012
H         33.09979        43.95742        -2.01845
O         41.53966        48.47975        -2.92645
H         40.96473        47.81006        -3.36994
O         45.04443        40.75234         1.73971
H         45.04927        39.97106         2.33305
O         32.56949        45.74244         1.92237
H         32.63094        46.60304         2.38735
O         37.89852        50.00371        -2.38189
H         37.91589        50.88168        -2.81743
O         36.91142        42.28705         2.17394
H         36.29688        42.94329         2.58824
O         39.30081        35.43236         2.64755
H         38.51272        35.10397         3.12931
O         36.76459        24.88201         1.61374
H         36.94365        23.92096         1.70033
O         30.03173        28.65308        -0.97112
H         30.79378        28.25610        -1.44146
O         46.68954        30.45536        -1.87284
H         46.37292        29.82734        -2.56305
H         27.05134        26.83514         1.45635
H         25.75724        28.96777         1.30812
H         25.67431        31.28989         0.54166
H         25.64876        33.27459         0.10921
H         25.63137        35.68085         0.36061
H         25.63136        37.65607         0.10659
H         25.70131        40.06265         0.09802
H         25.72061        41.94016        -0.04211
H         25.76701        44.38850        -0.23667
H         27.00024        46.49533        -0.38106
H         29.25244        25.66052         1.69755
H         29.11684        47.74152        -0.36967
H         32.70889        23.64568        -0.69427
H         30.66123        24.76702         0.02708
H         32.89179        49.75576        -0.95811
H         30.79272        48.55514        -0.81459
H         34.36315        22.60573        -0.77773
H         34.49187        50.81996        -0.33487
H         36.44208        21.49917        -1.35255
H         36.54477        52.03811        -0.72264
H         40.26723        19.40965        -2.09007
H         38.12182        20.56878        -1.95111
H         40.47745        54.04525        -0.04153
H         38.29621        52.89768        -0.26320
H         42.71915        19.62146        -2.65699
H         42.93353        53.99923        -0.07657
H         44.87991        20.69412        -2.18177
H         45.04143        52.76619        -0.27483
H         48.64192        22.67197        -1.11317
H         46.52845        21.45458        -1.20041
H         48.71530        50.61968        -0.75166
H         46.63083        51.82897        -0.57192
H         50.25670        23.62785        -1.07852
H         50.33646        49.69055        -0.97217
H         52.34009        24.81662        -0.75667
H         52.43449        48.51907        -0.99672
H         56.05943        26.94359        -0.16596
H         53.95249        25.71922        -0.45014
H         56.13319        46.39187        -0.22290
H         54.10869        47.42192        -1.20926
H         57.27815        29.05580         0.17190
H         57.28436        31.49052         0.49987
H         57.27130        33.36273         0.77439
H         57.24324        35.75786         1.17605
H         57.09533        37.46512         2.11110
H         56.87103        39.78278         2.98858
H         56.87999        42.67032         2.64253
H         57.14788        44.70291         1.18222
