         490
 CSIRO Nanostructure Databank - Neutral Graphene Oxide Data Set
C         37.80855        50.04044         1.68434
C         36.68178        50.69059         2.14439
C         37.85500        52.80523         2.09015
C         36.70360        52.08606         2.35021
C         40.17068        48.68684         0.55212
C         40.18110        50.08814         0.91320
C         39.01444        50.75006         1.41188
C         40.23614        52.91697         1.34876
C         39.03357        52.16838         1.62077
C         40.25328        54.33997         1.35400
C         42.45645        48.81805        -0.47574
C         41.21471        48.07539        -0.05632
C         42.54080        50.15112         0.23576
C         41.40737        50.80325         0.76532
C         42.62976        52.98191         0.81020
C         41.44504        52.23226         1.03109
C         42.60777        54.39904         0.71347
C         41.37790        55.05501         1.00369
C         44.94834        45.91384        -0.17230
C         43.76742        46.61683        -0.21645
C         44.98008        48.70601        -0.35595
C         43.76079        48.03455        -0.31897
C         44.96978        50.20776        -0.48663
C         43.83824        50.76539         0.34449
C         45.08966        53.01565         0.20962
C         43.90549        52.29245         0.65077
C         45.04027        54.42285         0.12357
C         43.80834        55.11968         0.36402
C         44.96021        57.22404        -0.08364
C         43.80933        56.53191         0.21591
C         47.46764        44.40519        -0.13210
C         47.43720        45.84730        -0.25128
C         46.21554        46.56887        -0.25243
C         47.45496        48.71836        -0.42058
C         46.22511        48.00560        -0.33683
C         47.48486        50.16638        -0.35671
C         46.29046        50.88548        -0.20582
C         47.52875        53.02270        -0.15763
C         46.30926        52.30324        -0.03887
C         47.50885        54.46281        -0.20224
C         46.25428        55.14660        -0.13572
C         47.43787        57.28888        -0.41137
C         46.22094        56.56403        -0.21479
C         47.42797        58.71835        -0.21766
C         49.96214        44.36234         0.02880
C         48.61689        43.69881        -0.02656
C         49.87990        45.80805        -0.42247
C         48.68740        46.54017        -0.41983
C         49.89104        48.71911        -0.60590
C         48.68490        48.00024        -0.52082
C         49.95007        50.15970        -0.55656
C         48.73149        50.87985        -0.40484
C         49.98880        53.01387        -0.47713
C         48.75779        52.30802        -0.34051
C         50.03843        54.49451        -0.15428
C         48.71261        55.19457        -0.38366
C         49.90422        57.33501        -0.93632
C         48.67133        56.59207        -0.56583
C         49.81276        58.88906        -0.77956
C         48.56067        59.45551        -0.26736
C         52.33068        41.48855        -0.33163
C         51.15913        42.14282        -0.48821
C         52.40187        44.31439        -0.55286
C         51.07268        43.61786        -0.77542
C         52.41195        45.70748        -0.56687
C         51.13732        46.45523        -0.77644
C         52.39255        48.70407        -0.52569
C         51.13068        47.97893        -0.82964
C         52.42982        50.16841        -0.80330
C         51.16849        50.88250        -0.73077
C         52.42200        53.05487        -0.96882
C         51.18291        52.31298        -0.72481
C         52.45228        54.43368        -0.99310
C         51.23999        55.21745        -0.74187
C         52.43042        57.06646        -1.73632
C         51.19608        56.56746        -1.00988
C         52.01799        59.80943        -1.50874
C         51.02969        59.69438        -0.51732
C         52.47101        60.92113         1.02359
C         51.27624        60.25298         0.75388
C         54.90410        40.01754        -0.14063
C         54.84339        41.44545        -0.16961
C         53.61822        42.16261        -0.30673
C         54.86652        44.29651        -0.26507
C         53.62432        43.58434        -0.38305
C         54.85258        45.73402        -0.34219
C         53.63871        46.41542        -0.48037
C         54.90173        48.58918        -0.78322
C         53.63562        47.90131        -0.41725
C         54.89088        50.05818        -1.04412
C         53.62072        50.82303        -0.95046
C         54.92687        52.95810        -0.77258
C         53.68222        52.28743        -1.33558
C         54.95467        54.40999        -0.75714
C         53.77479        55.11412        -1.38440
C         54.96602        57.31861        -1.06218
C         53.78042        56.63506        -1.19330
C         55.16612        58.78051        -1.04512
C         53.32259        60.12177        -1.07971
C         54.86016        61.43934         0.37075
C         53.55811        60.78903         0.13028
C         54.84850        62.78223         0.81314
C         57.34102        40.02741         0.14953
C         56.09436        39.34322        -0.00721
C         57.30938        41.43011         0.16621
C         56.08342        42.15983        -0.03653
C         57.33165        44.32382         0.17668
C         56.07387        43.57899        -0.06844
C         57.34115        45.81388         0.12637
C         56.08488        46.50389        -0.23446
C         57.35731        48.62241        -0.15320
C         56.12903        47.85249        -0.43776
C         57.33287        50.10149        -0.29555
C         56.20101        50.83515        -1.00949
C         57.24264        52.90062         0.17720
C         56.05760        52.24667        -0.50060
C         57.32669        54.38266        -0.10508
C         56.13275        55.08167        -0.53959
C         57.37346        57.19444        -0.17198
C         56.27548        56.52391        -0.96368
C         57.24742        58.58010         0.24610
C         56.12576        59.38605        -0.25862
C         57.30737        61.47772         0.48660
C         56.09068        60.79177         0.14751
C         57.27935        62.87528         0.77883
C         56.02235        63.50377         0.94581
C         59.86530        37.17760         0.09320
C         58.65465        37.86689         0.16422
C         59.85572        39.95812         0.17117
C         58.61303        39.27821         0.19228
C         59.87808        41.41823         0.34182
C         58.56512        42.17899         0.38944
C         59.81387        44.26862        -0.14745
C         58.62369        43.61061         0.06680
C         59.83809        45.73458        -0.55810
C         58.60937        46.52533        -0.17212
C         59.88804        48.59847        -0.71423
C         58.63462        47.87812        -0.24772
C         59.86958        50.10975        -0.47718
C         58.61830        50.83272        -0.33168
C         59.75042        52.90186         0.28711
C         58.58465        52.21472        -0.08118
C         59.66225        54.31916         0.80791
C         58.50034        55.05033         0.16922
C         59.77705        57.18171         0.42263
C         58.52283        56.49621         0.17055
C         59.81692        58.59257         0.45293
C         58.56144        59.32692         0.58559
C         59.77368        61.48137         0.71465
C         58.55695        60.79259         0.52483
C         59.75288        62.88207         0.93352
C         58.52654        63.58475         0.96321
C         59.74964        65.71284         1.11665
C         58.55303        65.00508         1.09835
C         62.41476        35.81354        -0.84685
C         62.37735        37.10558        -0.13161
C         61.09575        37.84964         0.03302
C         62.33552        40.02485        -0.01883
C         61.09723        39.26890         0.08050
C         62.28912        41.40194        -0.21142
C         61.07813        42.16174        -0.05943
C         62.35277        44.26498        -0.41885
C         61.06482        43.54138        -0.21842
C         62.37767        45.75959        -0.32568
C         61.06620        46.42300         0.06532
C         62.27517        48.56811         0.26476
C         61.11887        47.91086        -0.15583
C         62.27728        49.97645         0.48506
C         61.12663        50.78579         0.11430
C         62.20848        52.91526         1.14672
C         60.93910        52.14867         0.67172
C         62.22702        54.34650         0.85201
C         61.00128        55.04444         0.68042
C         62.26605        57.13469         0.07978
C         60.99271        56.42912         0.45685
C         62.26887        58.61391         0.36568
C         61.05317        59.32197         0.45070
C         62.24059        61.48233         0.64212
C         61.04000        60.76159         0.63817
C         62.27102        62.88842         0.88102
C         61.02053        63.57461         1.38371
C         62.23014        65.80375         1.18621
C         61.00031        65.07349         1.15999
C         62.29518        67.19878         1.15577
C         64.87000        35.81146        -0.85762
C         63.60559        35.17802        -1.08410
C         64.84305        37.31626        -0.84568
C         63.67133        37.84842        -0.01836
C         64.84672        40.02229        -0.40259
C         63.67607        39.34452         0.28872
C         64.64551        41.30285        -0.80325
C         63.52174        42.13340        -0.44442
C         64.87365        44.24288         0.13726
C         63.62099        43.50715        -0.35856
C         64.93004        45.76566        -0.11524
C         63.60522        46.47427         0.11276
C         64.63870        48.48854         1.20674
C         63.50751        47.77962         0.49235
C         64.75447        49.92863         0.65182
C         63.47791        50.65645         1.01296
C         64.80699        52.91501         1.38349
C         63.49122        52.13985         1.28080
C         64.74340        54.32556         0.84240
C         63.51407        55.01318         0.70332
C         64.74129        57.14255         0.53432
C         63.53032        56.42172         0.47919
C         64.71862        58.58964         0.49995
C         63.51960        59.29262         0.42052
C         64.76996        61.50117         0.56348
C         63.50272        60.78511         0.18396
C         64.71517        62.89236         0.67645
C         63.47716        63.59446         0.84849
C         64.78289        65.83975         1.07213
C         63.49676        65.04381         1.21275
C         64.72745        67.30196         0.86088
C         63.51003        67.92413         0.99947
C         67.32665        32.96914        -0.68396
C         66.14204        33.68629        -0.83198
C         67.31974        35.81272        -0.45168
C         66.09442        35.11056        -0.72186
C         67.36302        37.22735        -0.40814
C         66.15885        37.98167        -0.52023
C         67.41864        40.09800        -0.38626
C         66.16182        39.38085        -0.48936
C         67.53873        41.52992        -0.34238
C         66.47238        42.39345        -0.70695
C         67.38821        44.27337         0.45625
C         66.25103        43.64052        -0.13324
C         67.29184        45.69209         0.80583
C         66.08431        46.35840         0.68506
C         67.26448        48.54351         1.21902
C         65.97203        47.73438         1.19152
C         67.21611        49.99116         0.98112
C         66.01914        50.70427         0.96174
C         67.25366        52.83722         0.75018
C         66.01259        52.12407         0.90529
C         67.23508        54.29578         0.68103
C         65.98790        55.01425         0.70916
C         67.23445        57.15619         0.54603
C         65.98704        56.44030         0.61357
C         67.25064        58.57536         0.53005
C         65.98408        59.31019         0.89299
C         67.23917        61.44150         0.51128
C         66.00349        60.78469         0.57339
C         67.28009        62.90536         0.68560
C         65.97733        63.64972         0.79813
C         67.26671        65.81386         0.55521
C         65.90094        65.10700         0.36612
C         67.19285        67.25535         0.14650
C         66.03360        68.06957         0.67421
C         67.01399        69.91347        -0.69692
C         65.93185        69.37471        -0.06116
C         69.76593        31.42126        -0.10332
C         69.73913        32.83853        -0.05925
C         68.52832        33.57999        -0.30638
C         69.82483        35.71987        -0.05890
C         68.49270        35.03563         0.09121
C         69.90178        37.18850        -0.41111
C         68.60175        37.94253        -0.24266
C         69.95296        40.06827        -0.22174
C         68.62055        39.33183        -0.20490
C         69.89119        41.46534         0.36317
C         68.68203        42.18111         0.23559
C         69.74455        44.20775         1.30796
C         68.58849        43.56661         0.58540
C         69.76519        45.71193         1.15373
C         68.53733        46.40573         1.06955
C         69.75091        48.54642         1.14744
C         68.54841        47.82824         1.06277
C         69.69363        50.05711         1.31482
C         68.49508        50.63626         0.54612
C         69.71533        52.81861         0.16630
C         68.44581        52.13701         0.57949
C         69.70658        54.30643         0.40697
C         68.46055        55.00179         0.52148
C         69.70008        57.14543         0.35633
C         68.46452        56.43598         0.47842
C         69.70249        58.57223         0.27971
C         68.46180        59.28232         0.38891
C         69.68277        61.40938         0.06785
C         68.47218        60.72465         0.34293
C         69.60505        62.84890        -0.39636
C         68.58784        63.64803         0.41861
C         69.66930        65.78881        -0.28310
C         68.35876        65.04308        -0.21290
C         69.61447        67.15696        -0.39178
C         68.34146        67.88137        -0.32559
C         69.43281        69.82056        -1.44262
C         68.28032        69.24356        -0.77924
C         69.31836        70.98881        -2.23506
C         72.07772        31.40237         0.59598
C         70.91618        30.71459         0.21802
C         72.08671        32.79534         0.61475
C         70.94076        33.53733         0.27483
C         72.23505        35.71114         0.30357
C         70.97552        35.00017         0.16421
C         72.27143        37.06786         0.41982
C         71.10103        37.88083         0.20260
C         72.27962        39.98651         0.74781
C         71.11268        39.25786         0.32152
C         72.28681        41.34334         0.89655
C         71.08020        42.12889         0.77604
C         72.24221        44.29229         1.21460
C         71.06487        43.52215         1.05269
C         72.21157        45.66930         1.32426
C         70.98835        46.42168         1.24373
C         72.19478        48.64132         1.28639
C         70.98343        47.85903         1.22749
C         72.19628        50.00308         1.13850
C         70.98755        50.76441         0.96721
C         72.18664        52.88537         0.51767
C         70.98031        52.11350         0.64032
C         72.15637        54.23680         0.32438
C         70.92247        54.99210         0.33470
C         72.14160        57.17073         0.20329
C         70.93702        56.43391         0.30944
C         72.13799        58.54881         0.10455
C         70.92771        59.28470         0.12461
C         72.09362        61.47068        -0.34753
C         70.90533        60.72024        -0.04971
C         72.10353        62.84238        -0.48630
C         70.91337        63.62445        -0.40917
C         72.11094        65.82030        -0.57591
C         70.90040        65.03016        -0.41693
C         72.10184        67.17188        -0.61768
C         70.86338        68.00369        -0.40594
C         71.79366        69.71576        -2.04861
C         70.70637        69.18653        -1.34849
C         71.65410        70.86117        -2.83837
C         70.41310        71.49987        -2.92287
O         61.23148        52.39080         2.09670
O         57.09254        49.50871         1.02371
O         65.56879        41.91223        -1.65797
O         63.41462        51.16447         2.38154
O         63.24498        37.05086         1.10878
O         54.88721        49.09728        -2.17861
O         54.38186        59.63712        -1.87370
O         51.13795        47.18921        -2.06087
O         60.84570        50.78941        -1.34449
O         64.37101        65.34810         2.36793
O         62.42727        45.16190        -1.66598
O         44.19752        51.25786         1.65542
O         52.38104        57.39082        -2.91583
O         59.28493        41.83856         1.62110
O         57.28338        45.13521         1.42710
O         57.64935        58.81995         1.62386
O         66.64106        48.01469         2.46341
O         66.73052        63.32412         1.99735
O         52.96385        48.39399         0.80029
O         49.70101        58.24102        -2.06444
O         66.43921        68.39687         2.08051
H         67.20848        69.00507         2.02207
O         70.15123        37.24894        -1.87863
H         70.97872        36.74705        -2.04550
O         68.24819        35.01017         1.56328
H         67.39338        34.54756         1.70122
O         59.87208        45.75467        -1.99846
H         60.78979        45.52154        -2.28407
O         65.05258        53.10886         2.81180
H         64.73840        52.28896         3.26104
O         65.43812        65.14027        -1.00321
H         66.20583        64.96463        -1.60327
O         65.23604        45.97609        -1.51765
H         64.42955        45.72727        -2.02706
O         51.74539        59.64053        -2.81701
H         52.58601        59.58090        -3.31627
O         70.26663        40.23675        -1.65130
H         70.25424        39.32903        -2.04122
O         50.69940        43.76555        -2.17126
H         51.41904        43.39511        -2.72293
O         64.78578        49.78419        -0.79785
H         64.75175        50.67442        -1.20614
O         57.00691        52.75889         1.61006
H         57.71716        53.27635         2.07294
O         69.77481        52.68470        -1.30868
H         69.65966        51.71892        -1.49424
O         53.79495        52.28516        -2.78738
H         54.70043        51.96966        -3.00903
O         68.71200        50.21976        -0.86269
H         67.85785        50.31987        -1.33577
O         69.43300        50.32755         2.71898
H         70.14766        49.91302         3.24560
O         61.05699        63.40277         2.85025
H         60.25430        63.83239         3.21510
O         67.91255        64.94384        -1.58939
H         68.48049        64.27824        -2.05242
O         44.63946        50.54743        -1.87059
H         45.08928        49.90750        -2.46073
O         56.74222        56.46538        -2.35598
H         56.08198        55.92672        -2.85060
O         56.62500        50.98759        -2.39723
H         56.34526        50.16496        -2.86709
O         67.58117        65.82740         1.96826
H         67.02991        66.53093         2.39086
O         59.93211        48.44288        -2.16343
H         60.55865        49.12475        -2.49671
O         69.47702        43.96124         2.74767
H         70.19366        44.40182         3.25242
O         42.32114        49.04325        -1.92031
H         41.54111        49.62161        -2.05457
O         50.25111        54.55784         1.30525
H         49.52808        54.04866         1.73018
O         64.70201        44.13642         1.58478
H         64.77009        43.19362         1.84669
O         53.97567        54.96343        -2.82274
H         53.28618        55.49528        -3.28202
O         62.27296        57.06423        -1.42070
H         63.09586        57.50862        -1.72038
O         65.95730        59.27712         2.37328
H         66.69841        59.83325         2.69663
O         60.92012        46.20647         1.49827
H         61.58417        46.75401         1.97002
O         50.41312        44.33797         1.41549
H         49.72634        44.76766         1.96701
O         64.50316        37.74358        -2.21427
H         65.25706        37.51014        -2.79631
O         70.98311        68.58804         0.93909
H         71.04257        67.84313         1.57450
O         64.19062        48.56028         2.57276
H         64.99584        48.56963         3.14281
O         63.46435        60.90468        -1.29679
H         62.58592        60.57888        -1.59019
O         69.17591        62.71798        -1.79762
H         69.86914        62.20462        -2.26487
O         69.25494        63.82264         1.68221
H         68.58283        64.18269         2.31054
O         63.85936        39.49893         1.71959
H         63.47842        38.68950         2.13669
O         59.31370        54.23325         2.23394
H         59.99344        53.64118         2.64702
H         37.76780        48.95258         1.54094
H         35.76554        50.12176         2.35526
H         37.85198        53.88862         2.27034
H         35.80576        52.59857         2.72222
H         39.26458        48.09572         0.74641
H         39.33522        54.89567         1.58730
H         41.09587        47.03422        -0.38969
H         41.31627        56.15084         0.97184
H         44.90103        44.81985        -0.09578
H         42.81939        46.06436        -0.17412
H         44.89032        58.31092        -0.21724
H         42.87342        57.09511         0.32878
H         46.51653        43.85525        -0.11089
H         46.50066        59.20403         0.11151
H         48.56590        42.60925         0.11365
H         48.55424        60.51207         0.03562
H         52.30625        40.39870        -0.18846
H         50.22534        41.56148        -0.50977
H         52.61334        61.43096         1.98536
H         50.49280        60.19921         1.52286
H         53.98143        39.43135        -0.24741
H         53.88299        63.27454         0.99534
H         56.07436        38.24521        -0.01830
H         55.96389        64.56437         1.22378
H         59.84818        36.07866         0.07860
H         57.72661        37.28136         0.20337
H         59.69919        66.81045         1.08730
H         57.61337        65.57228         1.08755
H         61.46806        35.31215        -1.09343
H         61.36743        67.78625         1.19627
H         63.57895        34.14468        -1.46251
H         63.43788        69.01934         0.93118
H         67.29618        31.88571        -0.86749
H         65.22786        33.13542        -1.08879
H         66.90736        70.90870        -1.15226
H         64.99886        69.95308        -0.00261
H         68.85870        30.86262        -0.37042
H         68.34827        71.49503        -2.33138
H         72.98391        30.84476         0.86979
H         70.91087        29.61609         0.19225
H         73.01255        33.30740         0.90864
H         73.16707        35.14479         0.42780
H         73.22879        37.55205         0.65667
H         73.20220        39.43335         0.97307
H         73.21636        41.83335         1.21724
H         73.22400        43.79794         1.18772
H         73.16693        46.20264         1.41605
H         73.16091        48.12929         1.39030
H         73.16634        50.51856         1.09997
H         73.16268        52.39253         0.62906
H         73.11230        54.77135         0.24822
H         73.10810        56.65111         0.18161
H         73.09955        59.07107         0.01430
H         73.05253        60.94100        -0.42584
H         73.07321        63.34037        -0.62900
H         73.07320        65.29790        -0.68011
H         73.06279        67.70152        -0.69985
H         72.78045        69.23752        -1.98060
H         72.52106        71.26173        -3.38148
H         70.29985        72.40357        -3.53779
