         600
 CSIRO Nanostructure Databank - Neutral Graphene Oxide Data Set
C         23.09026        27.50664         1.46801
C         23.10839        28.88438         1.48886
C         23.12260        31.81717         1.25445
C         23.10390        33.17723         1.00798
C         23.05115        36.01316         0.27913
C         23.03911        37.37031        -0.02487
C         23.06921        40.28685         0.17142
C         23.09193        41.62839         0.27932
C         22.99471        44.54561        -0.04424
C         22.99399        45.91160        -0.02781
C         25.45052        24.64233         1.00482
C         24.27990        25.33930         1.20354
C         25.50808        27.45761         1.06418
C         24.27927        26.76076         1.24309
C         25.51062        28.87937         1.14830
C         24.32259        29.61304         1.32161
C         25.52535        31.78773         0.95705
C         24.33048        31.07674         1.21460
C         25.51681        33.18271         0.67462
C         24.28463        33.88832         0.68811
C         25.48588        36.00262         0.14371
C         24.26359        35.30738         0.38385
C         25.46710        37.40497        -0.12493
C         24.23008        38.08605        -0.19317
C         25.48593        40.27219        -0.44640
C         24.16182        39.54855        -0.56627
C         25.47625        41.68045        -0.39357
C         24.24180        42.40577        -0.15981
C         25.42446        44.54583        -0.70795
C         24.20220        43.79298        -0.24000
C         25.44842        45.98821        -0.27183
C         24.22929        46.66196        -0.07965
C         25.41912        48.76658         0.13462
C         24.23108        48.06276         0.12932
C         27.96337        23.16070         0.64702
C         27.93431        24.56884         0.61675
C         26.69505        25.31139         0.81138
C         27.94687        27.43467         0.53313
C         26.71879        26.72159         0.82787
C         27.96126        28.82453         0.57364
C         26.80543        29.57318         1.08823
C         28.01751        31.76906         0.47091
C         26.81800        31.08713         0.99639
C         27.97999        33.17684         0.27399
C         26.74576        33.88747         0.37878
C         27.94272        35.97976        -0.18778
C         26.72964        35.28620         0.13177
C         27.90614        37.38533        -0.43668
C         26.70813        38.10261        -0.38070
C         27.94608        40.26022        -0.55767
C         26.70289        39.55173        -0.51078
C         27.94780        41.69681        -0.49246
C         26.71422        42.41051        -0.43911
C         27.93511        44.54217        -0.37849
C         26.71952        43.82312        -0.44394
C         27.93337        45.98114        -0.25988
C         26.67849        46.69131        -0.19972
C         27.91589        48.82603         0.01967
C         26.66392        48.10417        -0.01433
C         27.94246        50.24531         0.05354
C         30.38362        23.12104         0.33517
C         29.15134        22.45768         0.49762
C         30.39226        24.54555         0.29996
C         29.16217        25.26488         0.41361
C         30.39333        27.36457         0.10037
C         29.17285        26.69444         0.30513
C         30.39722        28.80044        -0.18637
C         29.10413        29.57462         0.06418
C         30.40481        31.70368        -0.10883
C         29.18127        31.04099         0.19659
C         30.40989        33.12328        -0.17301
C         29.18918        33.86038        -0.05930
C         30.42694        35.96440        -0.47051
C         29.17961        35.26726        -0.26269
C         30.43961        37.36992        -0.59959
C         29.15005        38.07588        -0.93218
C         30.40944        40.22049        -0.63467
C         29.17510        39.54865        -0.62929
C         30.41295        41.68590        -0.74398
C         29.16122        42.42423        -0.54016
C         30.42335        44.55074        -0.23785
C         29.17759        43.83256        -0.41030
C         30.39604        45.96642        -0.04053
C         29.15145        46.67916        -0.09567
C         30.37844        48.83258         0.12502
C         29.14467        48.11656         0.02061
C         30.37736        50.25587         0.12475
C         29.13192        50.93672         0.07959
C         32.86871        20.29046         0.09033
C         31.66764        20.98644         0.20108
C         32.86707        23.10598         0.12363
C         31.63369        22.39158         0.21353
C         32.87545        24.53806         0.12150
C         31.63452        25.25271         0.17787
C         32.87436        27.38991        -0.04484
C         31.63777        26.66874         0.09535
C         32.88015        28.82205        -0.17613
C         31.65940        29.55012        -0.18378
C         32.86777        31.66622        -0.45503
C         31.63728        30.96071        -0.25888
C         32.85069        33.09547        -0.54168
C         31.63654        33.82203        -0.39439
C         32.91021        35.93619        -0.59828
C         31.65985        35.23825        -0.50006
C         32.90021        37.35838        -0.49012
C         31.66014        38.08128        -0.54634
C         32.85732        40.24443        -0.24859
C         31.65197        39.52695        -0.54919
C         32.90969        41.64001        -0.16138
C         31.72916        42.43257        -0.53700
C         32.86046        44.52541         0.16871
C         31.65541        43.85587        -0.17703
C         32.81641        45.93819         0.36303
C         31.61666        46.66637         0.22237
C         32.81300        48.84557         0.40715
C         31.61648        48.11984         0.27274
C         32.84618        50.26953         0.29313
C         31.62267        50.98169         0.16383
C         32.86446        53.07828         0.13779
C         31.66783        52.39904         0.09031
C         35.36747        18.84046        -0.37569
C         35.35672        20.23126        -0.14812
C         34.09657        20.96194         0.01110
C         35.33241        23.11227         0.07403
C         34.09826        22.38782         0.05406
C         35.33143        24.50249         0.09280
C         34.10602        25.24763         0.06754
C         35.33104        27.42069        -0.16442
C         34.10711        26.68743        -0.01799
C         35.33449        28.79468        -0.41833
C         34.10679        29.51893        -0.38161
C         35.27196        31.63496        -0.97791
C         34.09415        30.93977        -0.56068
C         35.10843        32.97350        -1.31600
C         34.04490        33.79945        -0.86837
C         35.40478        35.95478        -0.60638
C         34.14847        35.23477        -0.75528
C         35.35902        37.34817        -0.22926
C         34.12674        38.03385        -0.24950
C         35.31676        40.18877         0.48481
C         34.03908        39.44986         0.15070
C         35.30277        41.65588         0.44004
C         34.11142        42.35162         0.22919
C         35.33116        44.50652         0.48497
C         34.08899        43.79785         0.31469
C         35.34080        45.92860         0.55074
C         34.06001        46.62817         0.72578
C         35.34746        48.84310         0.54144
C         34.06425        48.14875         0.73478
C         35.34266        50.25616         0.41985
C         34.09533        50.97888         0.34055
C         35.35921        53.12160         0.27850
C         34.10466        52.39435         0.25870
C         35.40059        54.53680         0.20721
C         37.79730        18.80615        -0.40157
C         36.56651        18.13976        -0.44781
C         37.80454        20.21690        -0.27280
C         36.58820        20.91596        -0.09297
C         37.86793        23.09968        -0.02899
C         36.61009        22.35583         0.36190
C         37.88009        24.48514        -0.01131
C         36.61847        25.22865         0.21518
C         37.87973        27.42458        -0.27698
C         36.61596        26.72250         0.04310
C         37.88440        28.79255        -0.53174
C         36.59947        29.48464        -0.80869
C         37.97832        31.72820        -1.24504
C         36.59442        30.94824        -1.16585
C         37.97233        33.18255        -0.77964
C         36.94682        34.03064        -1.16360
C         37.87264        35.96794        -0.11179
C         36.69550        35.32192        -0.61453
C         37.83952        37.37831         0.10838
C         36.59021        38.07726         0.07459
C         37.81621        40.20394         0.45212
C         36.59099        39.46429         0.33661
C         37.82042        41.61632         0.62618
C         36.53882        42.34901         0.93716
C         37.78726        44.51344         0.59491
C         36.56465        43.81270         0.59162
C         37.78917        45.94134         0.50962
C         36.54958        46.65175         0.54844
C         37.78888        48.80220         0.41904
C         36.55007        48.10213         0.52065
C         37.78694        50.21766         0.43548
C         36.58379        50.95951         0.41229
C         37.80819        53.13532         0.33060
C         36.59010        52.41062         0.35405
C         37.83281        54.54622         0.26298
C         36.59592        55.23211         0.20562
C         40.21858        16.05527        -1.32369
C         39.07697        16.66350        -0.94529
C         40.30457        18.83358        -0.68965
C         39.09209        18.02329        -0.28519
C         40.28220        20.21061        -0.61263
C         39.06674        20.95309        -0.32187
C         40.38753        23.06939        -0.03692
C         39.07824        22.34119        -0.20465
C         40.32744        24.56235        -0.23768
C         39.10876        25.24839        -0.15550
C         40.33094        27.39616        -0.26687
C         39.10235        26.68277        -0.22609
C         40.33451        28.82559        -0.29340
C         39.11504        29.53889        -0.51404
C         40.31218        31.65555        -0.20590
C         39.12626        30.95872        -0.58377
C         40.28877        33.06895         0.03787
C         39.10763        33.80314        -0.16382
C         40.30821        35.92925         0.31667
C         39.07641        35.23130         0.05133
C         40.30245        37.35998         0.34123
C         39.06589        38.07636         0.29124
C         40.28772        40.20960         0.49830
C         39.05807        39.49830         0.39094
C         40.26323        41.61562         0.65280
C         39.03727        42.33456         0.68769
C         40.23874        44.51837         0.61255
C         39.04027        43.79602         0.68266
C         40.25784        45.93507         0.40973
C         39.02383        46.65552         0.41440
C         40.26967        48.76455         0.16298
C         39.03153        48.07614         0.34621
C         40.30557        50.18697         0.14090
C         39.08180        50.91256         0.50967
C         40.31216        53.08478        -0.03792
C         39.09145        52.42135         0.44758
C         40.31223        54.52936        -0.00608
C         39.11197        55.24656         0.28404
C         40.43098        57.26638         0.67404
C         39.20508        56.62425         0.59232
C         42.70551        16.05347        -1.53356
C         41.49926        16.74255        -1.27903
C         42.77327        18.82946        -1.11955
C         41.52663        18.13278        -1.03501
C         42.79096        20.25385        -1.05901
C         41.49952        20.95867        -1.00139
C         42.82324        23.13050        -0.74820
C         41.51976        22.44851        -0.82209
C         42.80533        24.55589        -0.49025
C         41.55940        25.26308        -0.32873
C         42.80437        27.40087        -0.20545
C         41.56781        26.68306        -0.26534
C         42.81041        28.82229        -0.10543
C         41.56553        29.53882        -0.15413
C         42.78706        31.66795         0.21581
C         41.54624        30.94538        -0.03423
C         42.76691        33.02407         0.46897
C         41.46019        33.73166         0.71077
C         42.76542        35.91480         0.52695
C         41.52162        35.22220         0.48002
C         42.77228        37.34945         0.45993
C         41.53660        38.06987         0.43244
C         42.77801        40.19948         0.49636
C         41.53563        39.49278         0.48443
C         42.79539        41.61710         0.58438
C         41.53422        42.31537         0.86183
C         42.77782        44.51754         0.44578
C         41.52918        43.84015         0.81954
C         42.74291        45.90987         0.19015
C         41.49352        46.62617         0.22495
C         42.71264        48.74758        -0.21209
C         41.49374        48.03887         0.04668
C         42.70523        50.16237        -0.38559
C         41.48639        50.89185        -0.15578
C         42.66996        53.01051        -0.76443
C         41.45646        52.33342        -0.29304
C         42.73758        54.55508        -0.57542
C         41.54187        55.22569        -0.06275
C         42.92043        57.18759         0.44310
C         41.62972        56.57834         0.34983
C         43.92415        16.71329        -1.50818
C         45.24623        18.83803        -1.25033
C         43.99202        18.11396        -1.30094
C         45.25423        20.24950        -1.09267
C         44.00064        20.96567        -1.05105
C         45.28662        23.11186        -0.94027
C         43.99350        22.40867        -0.94032
C         45.27972        24.58248        -0.67082
C         44.00053        25.27401        -0.42980
C         45.27992        27.38666        -0.16277
C         44.02779        26.68124        -0.22557
C         45.27960        28.80959        -0.06468
C         44.04488        29.52479        -0.00014
C         45.28024        31.62366         0.35570
C         44.05482        30.94383         0.19135
C         45.29579        33.04785         0.56830
C         44.00726        33.74126         0.92958
C         45.23557        35.91049         0.56588
C         44.00775        35.21817         0.61334
C         45.24457        37.34162         0.48404
C         44.00827        38.05394         0.46115
C         45.24112        40.20026         0.41615
C         44.01224        39.48465         0.44613
C         45.23552        41.62855         0.37688
C         43.99949        42.34324         0.47976
C         45.21024        44.48369         0.13139
C         43.99011        43.78782         0.38534
C         45.19354        45.89528        -0.08395
C         43.95934        46.60940        -0.06417
C         45.15705        48.70955        -0.57023
C         43.94454        48.02319        -0.28014
C         45.11869        50.09877        -0.87848
C         43.92000        50.84070        -0.74277
C         45.12175        53.00560        -1.02559
C         43.93815        52.27784        -0.85650
C         45.22707        54.41323        -0.70109
C         44.05139        55.16930        -0.37276
C         44.07846        56.48498         0.15075
C         47.69117        18.81759        -1.17641
C         46.49128        18.15228        -1.30891
C         47.73804        20.22103        -0.96998
C         46.51019        20.94127        -0.93672
C         47.74130        23.04460        -0.48477
C         46.53851        22.35408        -0.73784
C         47.75574        24.46635        -0.26619
C         46.47114        25.19034         0.01419
C         47.74321        27.35868        -0.21050
C         46.50819        26.68312        -0.16881
C         47.75852        28.80504        -0.14874
C         46.52404        29.50881        -0.01213
C         47.76976        31.59659         0.32981
C         46.53461        30.91628         0.21753
C         47.77865        33.01461         0.83626
C         46.48605        33.75791         0.60524
C         47.71857        35.90101         0.54237
C         46.49229        35.19698         0.60980
C         47.71806        37.33260         0.47455
C         46.48074        38.05129         0.46173
C         47.70770        40.19874         0.35371
C         46.48072        39.48251         0.40675
C         47.70039        41.62986         0.24647
C         46.46200        42.34301         0.24707
C         47.66794        44.47093        -0.10322
C         46.44807        43.76533         0.09922
C         47.65215        45.88216        -0.32604
C         46.41485        46.59790        -0.33642
C         47.62704        48.69115        -0.86826
C         46.40099        47.99533        -0.60250
C         47.63065        50.06643        -1.24840
C         46.32666        50.74162        -1.39701
C         47.63013        52.96426        -1.41742
C         46.33045        52.30738        -1.47419
C         47.68367        54.26532        -0.95185
C         46.51357        54.98589        -0.63814
C         50.24055        20.25815        -0.87753
C         48.99254        20.92544        -0.79957
C         50.22205        23.00494        -0.30532
C         48.99485        22.32333        -0.52436
C         50.21746        24.43900         0.16467
C         48.94951        25.18471        -0.16209
C         50.22613        27.30163        -0.43103
C         48.95372        26.60215        -0.19566
C         50.23881        28.81889        -0.40717
C         48.97627        29.52280        -0.12334
C         50.26671        31.63616         0.14461
C         48.99555        30.91657         0.13047
C         50.24494        33.06148         0.29104
C         49.01941        33.77667         0.46654
C         50.20713        35.91652         0.36377
C         48.98087        35.17892         0.46667
C         50.19056        37.34037         0.36447
C         48.94885        38.05594         0.40998
C         50.18252        40.20472         0.34546
C         48.94547        39.48283         0.36706
C         50.17338        41.64658         0.21543
C         48.92386        42.34507         0.12570
C         50.12575        44.46854        -0.29798
C         48.91068        43.76063        -0.08582
C         50.10675        45.87670        -0.53099
C         48.87028        46.58422        -0.54597
C         50.08840        48.69221        -1.01385
C         48.86439        47.98719        -0.81743
C         50.07935        50.09579        -1.25986
C         48.83782        50.76109        -1.45091
C         50.12647        52.90240        -1.77887
C         48.81644        52.19227        -1.97654
C         51.42857        20.93024        -0.66518
C         52.70010        23.02311        -0.09420
C         51.44211        22.31148        -0.34722
C         52.70775        24.45799        -0.07489
C         51.49173        25.19053        -0.13140
C         52.72894        27.31912        -0.30194
C         51.50074        26.58034        -0.24890
C         52.71193        28.78454        -0.32627
C         51.53339        29.50696        -0.22253
C         52.73168        31.68208        -0.02302
C         51.50563        30.95528        -0.04054
C         52.71737        33.10087         0.11273
C         51.47027        33.79316         0.23869
C         52.68063        35.94372         0.27153
C         51.44933        35.21611         0.29951
C         52.66580        37.35482         0.29463
C         51.42033        38.06228         0.32418
C         52.67498        40.19565         0.44291
C         51.39733        39.48472         0.36135
C         52.66609        41.72280         0.28609
C         51.37267        42.37662         0.08922
C         52.59735        44.44228        -0.47735
C         51.37710        43.76552        -0.22990
C         52.55232        45.82759        -0.91895
C         51.31432        46.58440        -0.78810
C         52.57610        48.71551        -0.95304
C         51.33064        47.98158        -0.97109
C         52.54525        50.15477        -1.09003
C         51.33091        50.81944        -1.29523
C         51.27366        52.25805        -1.49466
C         55.09908        23.04865         0.31739
C         53.90304        22.34541         0.08128
C         55.14334        24.43481         0.27706
C         53.94059        25.17341        -0.00059
C         55.22924        27.30202        -0.17236
C         53.92976        26.59256        -0.15574
C         55.26742        28.78306        -0.30998
C         53.98812        29.55469        -0.62504
C         55.20073        31.66506        -0.08940
C         54.00855        30.98856        -0.13266
C         55.22196        33.15698        -0.31155
C         53.93633        33.84249         0.08012
C         55.18035        35.97159         0.18829
C         53.93040        35.23754         0.17566
C         55.17622        37.36638         0.19412
C         53.91362        38.07631         0.20550
C         55.15410        40.18726        -0.11032
C         53.90975        39.45900         0.17809
C         55.14689        41.67893        -0.24161
C         53.88710        42.42089        -0.11224
C         55.12823        44.51999        -0.43774
C         53.86619        43.77988        -0.39619
C         55.12711        45.91246        -0.51904
C         53.90190        46.63537        -0.89295
C         54.96552        48.83608        -0.14820
C         53.79382        48.06552        -0.71029
C         54.98166        50.22285        -0.74985
C         53.83622        50.83223        -1.12601
C         57.32645        24.58821         1.64986
C         56.39586        25.15235         0.64295
C         57.23228        27.47471         1.40357
C         56.42159        26.62901         0.44608
C         57.45276        28.88438         0.88469
C         56.45012        29.52075         0.20954
C         57.67166        31.70736         0.44807
C         56.54389        30.96124        -0.23573
C         57.65711        33.13534         0.47176
C         56.45925        33.86009         0.19175
C         57.64555        35.98760         0.54893
C         56.43269        35.25377         0.30072
C         57.64556        37.41571         0.50445
C         56.41567        38.11106         0.28687
C         57.62948        40.27092         0.27817
C         56.42889        39.51166         0.17366
C         57.61609        41.71590         0.15630
C         56.40797        42.41986        -0.07334
C         57.59153        44.57072        -0.08422
C         56.36898        43.82582        -0.18067
C         57.56733        45.98174        -0.21844
C         56.33409        46.67741        -0.34597
C         57.48908        48.79370         0.09779
C         56.28714        48.09545        -0.23074
C         58.34430        25.33627         2.14608
C         59.62510        27.45669         2.09438
C         58.47579        26.75040         1.85768
C         59.72024        28.85490         1.80837
C         58.68878        29.57007         1.22996
C         59.90914        31.74398         1.41214
C         58.76332        31.01219         0.99197
C         59.96241        33.11443         1.30114
C         58.83238        33.85111         0.86584
C         60.04297        36.04450         1.01019
C         58.84976        35.28886         0.81131
C         60.04995        37.41661         0.92044
C         58.85603        38.15193         0.65879
C         60.04419        40.36384         0.67248
C         58.84989        39.58691         0.54179
C         60.03594        41.73121         0.56592
C         58.83011        42.46327         0.31280
C         59.99317        44.68745         0.47299
C         58.81415        43.88300         0.20611
C         60.01537        46.02502         0.28205
C         58.85573        46.75068        -0.33460
C         58.70738        48.17404         0.12184
O         31.21205        42.15991        -1.88769
O         39.25483        51.72363         1.73655
O         57.14052        25.78545        -0.48122
O         36.67707        26.10610         1.40107
O         42.49602        53.93121        -1.88212
O         27.09144        30.40020         2.27998
O         29.50239        29.15685        -1.29646
O         36.53968        29.94171        -2.23455
O         41.21078        21.89600        -2.12672
O         53.30910        46.12687        -2.12789
O         45.45397        24.12204        -2.03518
O         33.98728        47.38335         1.99127
O         36.06255        33.56577        -2.13834
O         55.59641        27.90787        -1.46577
O         55.12441        40.81871        -1.46577
O         41.59242        43.11879         2.09605
O         46.12320        51.45445        -2.65751
O         34.44082        39.64882         1.55461
O         52.80175        41.08281         1.61954
O         50.19491        28.07909        -1.68407
O         48.62220        52.11549        -3.42120
H         47.70692        51.76821        -3.56586
O         54.71641        49.01533         1.29631
H         53.90724        49.56301         1.38379
O         55.28346        33.30168        -1.78018
H         54.60744        32.70348        -2.16538
O         53.97966        29.74337        -2.08158
H         54.26914        28.88107        -2.46740
O         46.21331        24.97174         1.45460
H         46.90810        25.45060         1.95491
O         29.05594        37.99977        -2.41176
H         29.80668        38.51483        -2.77816
O         43.96166        33.67112         2.41166
H         43.01966        33.84704         2.66712
O         39.23345        17.75367         1.15549
H         40.07792        17.27040         1.27852
O         36.67222        22.28156         1.83567
H         36.57155        23.19594         2.17872
O         56.85817        30.93732        -1.65962
H         56.11897        30.46903        -2.11047
O         59.15867        46.83179        -1.78984
H         58.37823        47.24168        -2.22104
O         23.79617        39.58102        -1.98729
H         23.79443        40.52132        -2.26675
O         41.21492        33.59409         2.18779
H         41.00976        32.64804         2.35340
O         36.44645        42.30257         2.41643
H         35.56697        42.65707         2.66821
O         50.19564        24.35604         1.64664
H         49.48821        23.72122         1.89070
O         56.37179        27.61775         2.58544
H         56.88790        28.08814         3.27384
O         38.32442        31.75891        -2.65128
H         37.94017        30.94551        -3.05603
O         25.30926        44.59055        -2.18626
H         26.08592        45.08731        -2.52201
O         40.77872        22.86814         1.36651
H         40.04428        23.19148         1.93055
O         47.85371        32.89088         2.31479
H         46.95192        32.66998         2.63525
H         22.14310        26.96770         1.61507
H         22.16275        29.41944         1.64678
H         22.17263        31.31499         1.47872
H         22.14074        33.70183         1.05713
H         22.09166        35.49663         0.41091
H         22.07093        37.87420        -0.14585
H         22.19217        39.73216         0.53380
H         22.24580        42.14924         0.74956
H         22.04411        44.01155         0.09293
H         22.05289        46.46339         0.10969
H         25.41079        23.54522         0.98725
H         23.33215        24.79905         1.34093
H         25.38716        49.85299         0.28855
H         23.27650        48.58688         0.27975
H         27.03785        22.58894         0.79370
H         27.00450        50.81488         0.03371
H         29.11236        21.36101         0.52874
H         29.10136        52.03381         0.08409
H         32.83311        19.19331         0.08022
H         30.73748        20.40772         0.27064
H         32.84377        54.17353         0.07122
H         30.74110        52.97806        -0.01281
H         34.42698        18.27874        -0.44698
H         34.46776        55.11278         0.15276
H         36.52663        17.04599        -0.53491
H         36.57681        56.32869         0.14365
H         40.20117        15.02208        -1.70290
H         38.13437        16.09971        -0.98419
H         40.48096        58.32194         0.97681
H         38.29308        57.18885         0.83109
H         42.67257        14.97236        -1.73130
H         42.99086        58.22538         0.79853
H         44.84072        16.13333        -1.67906
H         45.04447        56.98654         0.30248
H         48.62071        18.23471        -1.21714
H         46.50912        17.06288        -1.44474
H         48.64775        54.78670        -0.87303
H         46.62394        56.03989        -0.35140
H         50.27985        19.18629        -1.11203
H         50.15605        53.98224        -1.98439
H         52.37247        20.37441        -0.74350
H         52.20371        52.83901        -1.42064
H         56.01675        22.47938         0.52076
H         53.93282        21.24773         0.08201
H         55.93169        50.77539        -0.79570
H         53.88284        51.86624        -1.49651
H         57.23332        23.52880         1.92948
H         57.42123        49.85578         0.37595
H         59.10168        24.86987         2.79516
H         60.51456        26.93994         2.48414
H         60.67410        29.34595         2.04094
H         60.78337        31.21452         1.81232
H         60.87806        33.63653         1.60835
H         60.99095        35.52663         1.20826
H         61.00233        37.94647         1.05484
H         61.00150        39.86030         0.86259
H         60.98683        42.27094         0.66811
H         60.88784        44.19548         0.88044
H         60.92516        46.60158         0.50697
H         59.61426        48.74400         0.37216
