         314
 CSIRO Nanostructure Databank - Neutral Graphene Oxide Data Set
C         31.15236        57.37856         2.38147
C         31.14958        58.78347         2.26911
C         29.99022        59.52630         2.62600
C         31.00122        61.55351         1.80205
C         29.92851        60.89815         2.40416
C         32.74717        52.87804         1.43849
C         32.94871        54.29529         1.27732
C         32.08219        55.18591         1.89979
C         33.47649        57.27982         1.58889
C         32.25702        56.62022         1.96085
C         33.50071        58.71624         1.44675
C         32.29658        59.44533         1.72448
C         33.22273        61.54345         0.78052
C         32.18698        60.85486         1.45027
C         35.19681        48.47876         1.40826
C         34.70839        49.64048         0.85243
C         33.69086        50.52275         1.34501
C         35.26407        52.80695        -0.21948
C         33.47536        51.82520         0.85204
C         35.18593        54.27822        -0.15989
C         34.25931        54.89480         0.86086
C         35.85710        56.86319         0.73487
C         34.57378        56.32242         1.23997
C         35.91228        59.05062         0.74445
C         34.60461        59.53105         0.92496
C         35.50297        61.57289        -0.18657
C         34.43016        60.88751         0.47676
C         37.80747        44.32470         1.11337
C         37.77378        45.75939         1.09679
C         36.54590        46.44682         1.19079
C         37.66440        48.56245         0.72498
C         36.46537        47.84078         1.04288
C         37.64277        50.04219         0.63950
C         36.50946        50.75350         0.07208
C         37.71771        52.96836        -0.06871
C         36.48367        52.15380        -0.10408
C         37.68137        54.27301        -0.77930
C         36.37664        55.00283        -0.70222
C         37.64429        57.18579        -1.03702
C         36.59105        56.41588        -0.30493
C         37.77917        58.68443        -0.92731
C         36.83037        59.56671        -0.17510
C         37.77776        61.55332        -1.39117
C         36.66452        60.91248        -0.58124
C         40.22495        40.09380         0.43514
C         40.21297        41.45633         0.73357
C         39.01517        42.19491         0.82316
C         40.27623        44.31871         1.20847
C         38.99341        43.59318         1.05338
C         40.25659        45.83856         1.10398
C         38.96903        46.51839         0.93474
C         40.20629        48.65629         0.57629
C         38.93201        47.91653         0.72763
C         40.21669        50.04577         0.45653
C         38.98758        50.82221         0.61151
C         40.22844        52.83661        -0.43367
C         39.00771        52.26392         0.17207
C         40.14335        54.15148        -1.21563
C         38.85138        54.93723        -1.01917
C         40.13185        57.08976        -1.76138
C         38.77778        56.32634        -1.65533
C         40.19969        58.57804        -1.62219
C         39.04873        59.34067        -1.32582
C         40.30527        61.39968        -1.53978
C         39.08029        60.75830        -1.36773
C         42.57633        35.80019        -0.36008
C         42.58642        37.16181        -0.06194
C         41.41399        37.91226         0.17553
C         42.67501        40.01640         0.39100
C         41.44919        39.33101         0.34796
C         42.64311        41.50266         0.19416
C         41.54199        42.12994         1.04232
C         42.71084        44.34230         0.72031
C         41.53196        43.63099         0.88896
C         42.69014        45.78700         0.66457
C         41.49588        46.52749         0.71243
C         42.70154        48.64789         0.25425
C         41.46321        47.93749         0.52085
C         42.71105        50.05457         0.08078
C         41.49738        50.86244         0.46942
C         42.67521        52.87076        -0.57165
C         41.41676        52.19195        -0.26653
C         42.66896        54.24906        -0.87385
C         41.36534        55.01608        -0.83548
C         42.71787        57.05066        -1.65030
C         41.42157        56.33221        -1.58967
C         42.66432        58.46729        -2.07835
C         41.43568        59.23705        -1.76852
C         42.77822        61.32661        -1.65799
C         41.51224        60.65955        -1.67965
C         45.06448        33.02503        -1.18406
C         43.85878        33.65166        -0.96407
C         45.15534        35.68349        -0.20244
C         43.79919        34.98408        -0.36911
C         45.15822        37.16978        -0.22416
C         43.88057        37.90233        -0.09104
C         45.19486        40.04150         0.10042
C         43.96727        39.27628         0.55546
C         45.17133        41.48374         0.12301
C         43.96560        42.20726         0.35006
C         45.19861        44.30740         0.35919
C         43.97286        43.61023         0.49251
C         45.26339        45.76247         0.53098
C         43.95179        46.53581         0.63387
C         45.16070        48.60805        -0.08716
C         43.94337        47.94826         0.22731
C         45.12067        49.99965        -0.35023
C         43.91050        50.72721        -0.22556
C         45.11683        52.89406        -0.53237
C         43.90472        52.17174        -0.45382
C         45.10862        54.29701        -0.76593
C         43.88020        54.96002        -1.02718
C         45.19747        56.92794        -1.84902
C         43.88969        56.35055        -1.47047
C         45.26157        58.46070        -2.18351
C         43.97613        59.22832        -2.20317
C         45.24389        61.25436        -1.51267
C         44.00285        60.64953        -1.79015
C         46.31941        33.66924        -1.01571
C         47.59799        35.76879        -0.62966
C         46.39817        35.01321        -0.63668
C         47.65589        37.14436        -0.31352
C         46.44028        37.85393         0.27738
C         47.61942        40.00500        -0.30074
C         46.39928        39.33593        -0.05573
C         47.59727        41.45930        -0.42014
C         46.37884        42.19734        -0.05808
C         47.64329        44.33071         0.02529
C         46.40158        43.61213         0.05208
C         47.68308        45.74138         0.02315
C         46.46449        46.48481         0.08622
C         47.66986        48.53376        -0.42162
C         46.43282        47.87410        -0.13644
C         47.67004        49.97821        -0.75327
C         46.35042        50.73120        -0.71020
C         47.58081        52.86649        -0.34178
C         46.38502        52.19280        -0.49360
C         47.56474        54.37997        -0.14596
C         46.35664        55.02434        -0.78706
C         47.70923        56.93824        -1.62338
C         46.41756        56.28624        -1.33664
C         47.76567        58.43716        -1.99767
C         46.50481        59.17223        -1.91983
C         47.72195        61.23448        -1.36131
C         46.49205        60.55527        -1.58244
C         48.83062        37.87809        -0.49485
C         50.10412        40.00876        -0.39649
C         48.86852        39.30668        -0.39328
C         50.19274        41.41125        -0.26705
C         48.93366        42.18119        -0.36554
C         50.21743        44.30103         0.21427
C         48.90019        43.57489         0.13854
C         50.19024        45.75995         0.02814
C         48.93413        46.44618        -0.06534
C         50.18129        48.53728        -0.53997
C         48.89329        47.83964        -0.32831
C         50.18225        50.06274        -0.53232
C         48.88637        50.76756        -0.48065
C         50.06966        52.83250         0.09878
C         48.82256        52.12587        -0.25056
C         50.09715        54.37430        -0.11221
C         48.87036        55.03676        -0.55527
C         50.21027        56.94469        -1.34262
C         48.93928        56.30297        -1.10874
C         50.35733        58.41224        -1.62694
C         49.07064        59.18535        -1.86403
C         50.16740        61.33871        -1.25219
C         48.99948        60.62036        -1.47989
C         51.40356        42.12815        -0.17788
C         52.65557        44.27325        -0.11992
C         51.46733        43.55083        -0.07556
C         52.68330        45.70912         0.04217
C         51.41453        46.43761        -0.01287
C         52.61037        48.58285         0.05021
C         51.43453        47.85754        -0.16370
C         52.59123        50.00270         0.10453
C         51.41247        50.73936        -0.10042
C         52.53598        52.90956         0.27954
C         51.36099        52.15146         0.08727
C         52.59303        54.29696        -0.04054
C         51.38967        54.93434        -0.48306
C         53.06224        57.23626        -0.63767
C         51.34175        56.13650        -1.22634
C         52.65699        58.52179        -0.32387
C         51.60574        59.21184        -1.15554
C         52.63360        61.63234        -0.68133
C         51.51215        60.74380        -1.16227
C         53.85837        46.41481         0.19913
C         55.11457        48.64142         0.38890
C         53.83184        47.86720         0.59792
C         55.11737        50.02099         0.55719
C         53.78998        50.69078         0.63303
C         55.02028        52.92941         0.77795
C         53.75326        52.20078         0.69978
C         54.95513        54.33947         0.82086
C         53.79839        55.03617         0.29190
C         54.69445        57.17178         1.18942
C         53.86036        56.44342         0.23436
C         54.57848        58.63863         1.23953
C         53.37646        59.13095         0.76799
C         54.78916        61.66800         0.65046
C         53.43164        61.30601         0.38426
C         56.28635        50.81421         0.73790
C         57.42687        53.00504         1.18678
C         56.25843        52.23231         0.92385
C         57.35000        54.39747         1.43338
C         56.08710        55.05216         1.28989
C         57.05321        57.24027         2.21312
C         55.89434        56.42019         1.76287
C         56.92400        58.76984         2.25699
C         55.56185        59.52737         2.02547
C         57.01732        61.52388         1.44445
C         55.75964        60.90945         1.35025
C         58.47458        55.20419         1.79874
C         59.51431        57.37626         2.31190
C         58.38219        56.58560         2.08386
C         59.44413        58.80355         2.33594
C         58.20892        59.49155         2.15817
C         59.43976        61.59654         1.90658
C         58.21809        60.88001         1.86755
C         60.64757        59.55900         2.38678
C         60.63422        60.93831         2.20075
O         40.35947        45.15506         2.41238
O         40.83212        56.50253        -2.90873
O         52.89916        60.33868         1.25836
O         54.68056        56.57828         2.54958
O         48.25489        42.01109        -1.63671
O         56.85684        57.94319         3.47350
O         34.10694        52.11498        -0.39845
O         46.46166        37.77044         1.67972
O         38.40764        53.11409         1.22589
O         38.42040        55.88425        -2.94318
O         34.92460        55.20903         2.15093
O         49.97196        58.85503        -2.95844
O         49.55620        43.79079         1.43212
O         45.30302        57.43096        -3.20300
O         35.40356        50.06659        -0.33705
O         44.52249        35.08890         0.94038
O         52.54139        56.61368        -1.77554
O         53.53962        51.35464         1.91153
O         38.23753        50.65946         1.84071
O         43.20227        58.87725        -3.38284
O         35.22026        54.75298        -1.56874
O         37.04509        58.06153        -2.05380
O         52.07397        59.98265        -2.30172
O         44.77663        46.25979         1.83016
O         46.95570        50.31842        -1.98783
O         49.98330        53.77211         1.22150
O         50.29859        49.29617        -1.78760
O         47.83146        57.39179        -3.00148
O         36.32474        57.94428         1.47900
O         44.56782        37.79480        -1.40022
O         47.41205        54.62836         1.28749
H         48.23945        54.29653         1.71676
O         41.85866        41.86767         2.42918
H         41.26521        42.40770         2.99218
O         40.16763        53.83028        -2.61713
H         39.66387        54.56208        -3.08602
O         53.64278        47.85613         2.06701
H         53.62595        48.79103         2.36922
O         42.24470        41.72011        -1.19991
H         42.90331        41.28153        -1.77923
O         44.15545        39.06629         1.98128
H         45.03377        38.56167         2.09108
O         41.70502        51.23374         1.87724
H         41.67340        50.41326         2.41406
O         55.01776        59.79621         3.32481
H         55.17540        58.99163         3.87049
O         41.17634        55.42664         0.55237
H         41.12633        54.61824         1.10844
O         37.36302        61.67226        -2.76254
H         37.23573        60.76828        -3.12064
H         30.24331        56.86418         2.72666
H         29.13347        58.99576         3.06547
H         30.93931        62.63052         1.58960
H         29.02537        61.46053         2.67828
H         32.00939        52.59460         2.20585
H         31.14342        54.79168         2.31817
H         33.08487        62.59944         0.50603
H         34.62146        47.99483         2.21121
H         33.19483        50.23747         2.28340
H         35.35740        62.62988        -0.45331
H         36.84751        43.78742         1.08702
H         35.63201        45.87784         1.41375
H         37.96145        62.59392        -1.01897
H         39.26930        39.56520         0.29494
H         38.05827        41.67630         0.65493
H         40.34811        62.49885        -1.56266
H         41.61212        35.28844        -0.50666
H         40.44032        37.40058         0.18352
H         42.79235        62.40430        -1.43539
H         45.06226        32.00269        -1.58907
H         42.92116        33.16638        -1.27257
H         45.26123        62.31750        -1.23098
H         47.23697        33.12675        -1.28493
H         48.53289        35.25672        -0.91124
H         47.68524        62.30598        -1.11531
H         49.74576        37.35615        -0.81948
H         51.03387        39.42059        -0.41386
H         50.07169        62.39161        -0.94574
H         52.34968        41.56844        -0.23521
H         53.61183        43.74072        -0.23436
H         52.97630        62.38780        -1.40545
H         54.81970        45.87895         0.22188
H         56.06862        48.09185         0.38065
H         55.16109        62.57762         0.15016
H         57.26104        50.30450         0.76278
H         58.39657        52.49589         1.28390
H         57.11073        62.56071         1.08402
H         59.47001        54.73594         1.82701
H         60.50779        56.90327         2.31742
H         59.43480        62.67720         1.70671
H         61.59823        59.03379         2.55616
H         61.57422        61.50547         2.24603
