         334
 CSIRO Nanostructure Databank - Neutral Graphene Oxide Data Set
C         30.45371        57.18338        -0.75527
C         30.46776        58.60185        -1.07228
C         29.25702        59.39527        -1.24926
C         30.46636        61.51159        -0.96700
C         29.29632        60.77641        -1.24886
C         32.89872        52.88331        -0.40895
C         32.87413        54.33037        -0.42146
C         31.69631        55.04511        -0.52827
C         32.83665        57.20325        -0.17289
C         31.66740        56.49694        -0.50504
C         32.78181        58.68283         0.13236
C         31.75079        59.38656        -0.72662
C         32.86571        61.53795        -0.35318
C         31.67802        60.86603        -0.63128
C         35.20614        48.62485         0.47570
C         35.26662        50.11085         0.22410
C         34.10703        50.76476        -0.12736
C         35.40485        52.87931        -0.49451
C         34.07726        52.18714        -0.30619
C         35.34394        54.35329        -0.19136
C         34.13133        55.02378        -0.22859
C         35.28598        57.24588        -0.43024
C         34.09502        56.46879         0.18652
C         35.39835        58.66034         0.19214
C         34.10165        59.40910         0.02859
C         35.30833        61.55613        -0.12948
C         34.11123        60.82343        -0.14571
C         37.72777        44.35920        -0.13595
C         37.77035        45.86526        -0.00874
C         36.56462        46.57817        -0.04998
C         37.72702        48.63683         0.52022
C         36.53189        47.94473         0.25229
C         37.69006        50.07471         1.00954
C         36.49899        50.82798         0.45393
C         37.78600        52.93716         0.37856
C         36.57142        52.18779         0.18340
C         37.80293        54.36401         0.22301
C         36.58777        55.04735        -0.03927
C         37.89977        57.24913        -0.20925
C         36.60324        56.48410        -0.35915
C         37.88115        58.71701        -0.09961
C         36.59040        59.45964        -0.38417
C         37.88942        61.57505        -0.21094
C         36.61367        60.88889         0.20058
C         40.35453        40.25805        -0.88128
C         40.42204        41.73534        -1.16379
C         39.13103        42.45335        -0.90683
C         40.27743        44.37156         0.08906
C         39.07779        43.70544        -0.36597
C         40.18595        45.74873         0.59627
C         38.95359        46.54063         0.34161
C         40.15826        48.63290         1.17068
C         38.94027        47.93320         0.57931
C         40.19733        50.12744         0.89369
C         38.99315        50.81621         0.78694
C         40.22373        52.95139         0.83606
C         38.99759        52.23553         0.65592
C         40.22647        54.38706         0.77654
C         39.03991        55.09402         0.43044
C         40.22340        57.27405         0.58431
C         39.07669        56.52255         0.29172
C         40.27886        58.69084         0.38689
C         39.05130        59.40846         0.10158
C         40.34394        61.50219        -0.18705
C         39.07491        60.86902        -0.08588
C         42.80231        35.98605        -1.18191
C         42.77190        37.37126        -0.91517
C         41.54749        38.10257        -0.80696
C         42.84012        40.26063        -0.97838
C         41.51983        39.52179        -0.82755
C         42.79408        41.67200        -0.42291
C         41.60236        42.37394        -0.46686
C         42.75241        44.39098         0.39116
C         41.52026        43.71572         0.03891
C         42.75274        45.78219         0.66436
C         41.47458        46.49101         0.85687
C         42.73051        48.68674         0.93607
C         41.44099        47.98699         0.59684
C         42.70734        50.11487         1.07536
C         41.43589        50.83168         1.02054
C         42.63614        52.97677         1.61557
C         41.42576        52.23809         1.08566
C         42.66717        54.44112         1.24917
C         41.45536        55.09828         1.02409
C         42.72688        57.33038         1.13839
C         41.40758        56.56710         1.08632
C         42.74323        58.72463         0.66583
C         41.51223        59.39180         0.40294
C         42.78731        61.45567        -0.06068
C         41.54364        60.80071         0.04384
C         45.29354        33.25896        -1.80024
C         44.07530        33.90554        -1.63017
C         45.26471        36.01558        -1.22629
C         44.03114        35.29970        -1.34086
C         45.24478        37.40921        -0.91380
C         44.01654        38.06033        -0.75815
C         45.26502        40.21434        -0.33287
C         43.95245        39.47919        -0.28284
C         45.23529        41.57122         0.00693
C         44.00362        42.29196         0.02799
C         45.21852        44.40236         0.54983
C         43.98809        43.68821         0.34553
C         45.20836        45.81325         0.71246
C         43.95438        46.51112         0.77694
C         45.20172        48.66057         0.86298
C         43.91837        47.94811         0.92565
C         45.19038        50.15818         1.00822
C         43.90765        50.84817         1.20094
C         45.15372        52.95930         1.39438
C         43.93862        52.25991         1.37526
C         45.16824        54.41939         1.36806
C         43.92392        55.14359         1.26575
C         45.19654        57.25073         0.99492
C         43.96963        56.55006         1.11141
C         45.21407        58.66948         0.75215
C         43.98010        59.37357         0.52185
C         45.23958        61.43820         0.06511
C         44.00859        60.77605         0.16109
C         46.50316        33.95763        -1.69443
C         47.73053        36.07631        -1.29572
C         46.51249        35.34119        -1.40902
C         47.74423        37.45031        -1.02790
C         46.49028        38.14914        -0.82939
C         47.73078        40.34334        -0.78206
C         46.47948        39.52596        -0.57471
C         47.75860        41.61902         0.02947
C         46.47763        42.19315         0.58430
C         47.66410        44.36974         0.77057
C         46.46539        43.70087         0.57927
C         47.67723        45.79179         0.90341
C         46.45316        46.50892         0.87261
C         47.66190        48.60906         1.27251
C         46.47116        47.92432         1.05317
C         47.64607        50.03911         1.77059
C         46.43554        50.85828         1.35584
C         47.71286        52.98065         1.32150
C         46.40813        52.22723         1.44162
C         47.64197        54.42674         1.84113
C         46.38180        55.12789         1.37736
C         47.66464        57.24814         1.09940
C         46.42126        56.53889         1.16606
C         47.67820        58.65489         0.88681
C         46.44870        59.35621         0.69409
C         47.66349        61.47455         0.30269
C         46.46970        60.77687         0.35499
C         48.97256        38.16605        -0.87964
C         50.20601        40.24647        -0.42145
C         49.00840        39.54467        -0.64709
C         50.21361        41.61867        -0.04368
C         48.93136        42.26435         0.25258
C         50.18353        44.38238         0.79269
C         48.93072        43.57477         1.01393
C         50.16079        45.78332         0.96183
C         48.91159        46.49707         1.05221
C         50.14800        48.61511         1.33836
C         48.90501        47.90346         1.23016
C         50.12751        50.07111         1.44967
C         48.95645        50.76311         1.56209
C         50.18348        52.98961         1.48537
C         48.93313        52.24279         1.89866
C         50.12082        54.38394         1.32596
C         48.91638        55.14587         1.44462
C         50.14965        57.23043         0.91878
C         48.90723        56.51755         1.16210
C         50.13609        58.67163         0.73039
C         48.93344        59.36079         0.76852
C         50.13124        61.43145         0.00434
C         48.95628        60.87277         0.75405
C         51.39984        42.32029         0.17044
C         52.62177        44.43274         0.59746
C         51.41124        43.71021         0.53280
C         52.64203        45.81097         0.90894
C         51.38506        46.51052         1.04852
C         52.63527        48.58388         1.65048
C         51.36386        47.90879         1.28221
C         52.63328        50.07615         1.80539
C         51.43663        50.78946         1.20138
C         52.64147        52.95967         1.38294
C         51.42249        52.28267         1.43917
C         52.64913        54.32963         0.89154
C         51.31882        55.08009         0.83710
C         52.65724        57.28170         0.85657
C         51.34168        56.54208         0.82016
C         52.56267        58.64211         0.21954
C         51.36551        59.33135         0.30279
C         52.44782        61.28525        -0.79919
C         51.28489        60.70939        -0.17724
C         53.86208        46.51985         1.00820
C         55.11374        48.60033         1.27472
C         53.91909        47.89721         1.35283
C         55.23462        50.03204         1.59441
C         53.95249        50.80102         1.84074
C         55.20338        52.99653         1.20719
C         53.93808        52.29465         1.65153
C         55.10680        54.39125         0.73177
C         53.91162        55.08956         0.75332
C         55.01390        57.12681        -0.07760
C         53.85423        56.47272         0.43831
C         54.89326        58.48697        -0.57830
C         53.72549        59.21628        -0.41961
C         54.80361        61.19296        -1.49757
C         53.63526        60.58290        -0.93100
C         56.53819        50.75176         1.20408
C         57.30600        52.76925        -0.05131
C         56.38374        52.20380         0.76257
C         57.18881        54.18797        -0.58209
C         56.39524        55.06739         0.42591
C         57.51470        57.14858        -0.46389
C         56.23341        56.45146        -0.12297
C         57.33534        58.41027        -1.25775
C         55.96738        58.98395        -1.51009
C         57.15636        61.07525        -2.22241
C         55.98067        60.48329        -1.69793
C         58.48997        54.86001        -0.91806
C         59.72379        56.88616        -1.59778
C         58.57821        56.22690        -1.05339
C         59.69900        58.25309        -1.91177
C         58.43927        58.99459        -1.82086
C         59.52432        60.93145        -2.90437
C         58.35646        60.35042        -2.35960
C         60.81848        58.90570        -2.49078
C         60.72556        60.21560        -2.95951
O         31.57779        58.90242        -2.05178
O         54.78476        50.37695         2.95040
O         54.81662        52.93976         2.63428
O         40.70464        45.96171         1.96639
O         52.44347        49.24776         2.96946
O         41.92357        57.11653         2.34969
O         40.03432        48.59286         2.56737
O         51.88282        54.45920        -0.37360
O         45.28369        49.52513        -0.34729
O         37.43391        56.76140        -1.54243
O         34.16450        48.01850        -0.29514
H         34.41464        48.06172        -1.24029
O         40.70495        41.85703        -2.62589
H         40.70936        42.81466        -2.84066
O         55.58126        58.43506        -2.83380
H         56.20103        58.81522        -3.49306
O         35.73102        58.49291         1.60371
H         35.07305        57.88260         2.01815
O         48.85263        52.27101         3.35372
H         49.71092        51.96085         3.71220
O         47.47302        49.90681         3.22560
H         47.71435        50.78396         3.61850
O         57.21615        55.10093         1.64353
H         56.61241        55.13912         2.41620
O         36.44785        59.63820        -1.80231
H         36.11901        58.78750        -2.18527
O         46.47735        41.80505         2.01832
H         45.63548        42.12806         2.40698
O         58.08874        57.56930         0.82507
H         58.11348        56.75513         1.38728
O         47.96434        53.05353        -0.10782
H         47.17670        53.44576        -0.54003
O         37.56295        49.97289         2.46281
H         38.37917        49.47136         2.75970
O         37.16357        43.81863         1.07715
H         37.68999        44.15750         1.83106
O         34.19050        56.44276         1.66521
H         33.48176        55.84271         1.98320
O         32.29565        58.81384         1.52761
H         32.94714        58.35316         2.10026
O         47.55056        54.40845         3.28823
H         47.37956        55.32397         3.59151
O         34.95200        57.41528        -1.82628
H         35.23486        56.61213        -2.31298
O         43.13267        40.35304        -2.38847
H         42.36750        40.82278        -2.80304
O         49.12708        61.28555         2.17261
H         48.30497        61.03357         2.64516
O         51.68029        50.67498        -0.24483
H         51.01876        51.23460        -0.70676
O         35.69338        52.79452        -1.93841
H         35.71111        51.84280        -2.17440
O         57.21038        50.01153         0.18071
H         56.69595        50.08310        -0.64918
O         47.67677        40.76899        -2.19070
H         48.53528        41.19532        -2.39871
O         41.29808        48.14218        -0.85508
H         42.19276        48.15464        -1.25672
O         43.56882        39.43693         1.13137
H         44.24568        38.91487         1.61107
O         36.66181        60.92132         1.66007
H         36.19961        60.11289         1.99839
O         42.47285        52.96335         3.08261
H         41.61912        53.40000         3.28991
O         52.89085        57.53000         2.30592
H         52.26768        58.23589         2.58471
O         56.36411        54.14630        -1.78114
H         56.90969        53.80365        -2.51891
O         48.91629        43.23197         2.43826
H         48.12395        42.65436         2.57573
H         29.50701        56.62542        -0.80136
H         28.29165        58.87229        -1.31285
H         30.42229        62.60972        -0.94795
H         28.36233        61.33087        -1.42112
H         31.93949        52.34354        -0.38624
H         30.74883        54.50882        -0.68490
H         32.89345        62.63726        -0.39738
H         34.92926        48.47155         1.55607
H         33.17003        50.19150        -0.19832
H         35.25979        62.65594        -0.18067
H         37.03089        44.06718        -0.96353
H         35.62078        46.04706        -0.24080
H         37.90875        62.66259        -0.38174
H         39.37202        39.76718        -0.80702
H         38.19991        41.96209        -1.22933
H         40.38824        62.57863        -0.41135
H         41.85817        35.43096        -1.29010
H         40.59559        37.54972        -0.83111
H         42.81050        62.52381        -0.32356
H         45.31051        32.18295        -2.02416
H         43.13350        33.34580        -1.72157
H         45.26199        62.50467        -0.20329
H         47.45661        33.42851        -1.83489
H         48.68446        35.54461        -1.43120
H         47.65034        62.54554         0.04928
H         49.91687        37.60039        -0.90854
H         51.16415        39.70612        -0.46868
H         50.08092        62.47809        -0.33238
H         52.36232        41.81688        -0.00583
H         53.57268        43.90699         0.42581
H         52.38656        62.32178        -1.16395
H         54.80383        45.98590         0.81061
H         56.02164        48.07384         0.94344
H         54.76333        62.26263        -1.75627
H         57.20939        50.73042         2.10187
H         58.15045        52.15181        -0.40095
H         57.14155        62.14230        -2.49340
H         59.37413        54.23397        -1.12578
H         60.59587        56.28341        -1.89663
H         59.48340        61.96099        -3.28843
H         61.77036        58.36157        -2.57534
H         61.61442        60.69476        -3.39440
