         404
 CSIRO Nanostructure Databank - Neutral Graphene Oxide Data Set
C          1.23093         3.36978         0.74968
C          0.03951         4.03850         0.70594
C          1.09647         6.14904         0.06644
C         -0.02149         5.44623         0.41706
C          1.07985         7.63610        -0.06958
C         -0.09650         8.33334        -0.59849
C          1.14585        10.45719        -0.82600
C         -0.06422         9.66356        -0.87890
C          1.12449        11.88125        -1.08136
C         -0.08610        12.59074        -1.28258
C          1.09232        14.72305        -1.40884
C         -0.10476        13.96458        -1.43577
C          1.05318        16.18648        -1.29725
C         -0.13035        16.95927        -1.38196
C          0.96988        18.95464        -0.51905
C         -0.14491        18.33529        -1.11887
C          1.13127        20.45709        -0.36496
C          0.08140        21.20178         0.35723
C          1.39164        23.30424         0.36144
C          0.20946        22.51440         0.66997
C          1.45364        24.70178         0.65500
C          0.28707        25.43560         1.11006
C          1.58457        27.49578         1.48681
C          0.31588        26.75315         1.43248
C          1.63313        28.97161         1.65549
C          0.56339        29.65686         2.25963
C          1.84765        31.72696         2.35701
C          0.66354        30.99819         2.60576
C          1.96302        33.15515         2.69868
C          0.89800        33.83910         3.34964
C          2.08092        35.96357         3.20952
C          0.96219        35.19306         3.61469
C          2.14801        37.37278         3.44400
C          3.69238         3.42528         0.62489
C          2.47020         4.03933         0.44979
C          3.68161         6.19908        -0.21904
C          2.38479         5.42890        -0.06154
C          3.66691         7.68089        -0.24765
C          2.39302         8.41082        -0.16067
C          3.61780        10.52226        -0.73262
C          2.37342         9.81632        -0.61134
C          3.60892        11.93058        -0.94874
C          2.34943        12.61434        -1.09583
C          3.58908        14.75947        -1.40645
C          2.31563        14.02687        -1.27078
C          3.56950        16.28015        -1.18074
C          2.23476        16.84953        -0.86961
C          3.96407        19.20212        -0.38348
C          2.06227        18.11269        -0.28624
C          3.78331        20.55817        -0.66707
C          2.46008        21.21332        -0.50253
C          3.71081        23.39040        -0.48380
C          2.53421        22.65463        -0.15103
C          3.73045        24.78596        -0.27489
C          2.63881        25.41921         0.35471
C          3.87796        27.65863         0.34472
C          2.77772        26.81125         0.83848
C          3.93467        29.00811         0.65685
C          2.81979        29.68031         1.34632
C          4.15644        31.78065         1.41415
C          2.90294        31.05262         1.70131
C          4.27593        33.23844         1.73917
C          3.10563        33.90046         2.34496
C          4.28476        36.07880         2.09987
C          3.16184        35.30835         2.55239
C          4.31407        37.48083         2.32502
C          3.22876        38.10439         3.02231
C          6.16505         3.48718         0.74639
C          4.94696         4.12273         0.48915
C          6.13750         6.23464         0.08851
C          4.94618         5.51891         0.14024
C          6.10783         7.62078        -0.43631
C          4.83919         8.37989        -0.44326
C          6.09157        10.54112        -0.64522
C          4.85560         9.81733        -0.59940
C          6.08561        11.96418        -0.84037
C          4.85114        12.65408        -0.98849
C          6.07386        14.79751        -1.20395
C          4.86683        14.06593        -1.19444
C          6.07851        16.24578        -1.29243
C          4.87940        16.98100        -1.06144
C          6.06006        19.14069        -1.57174
C          4.95232        18.40004        -0.97472
C          6.12598        20.59220        -1.36434
C          4.92981        21.30022        -1.05427
C          6.10734        23.44122        -1.23909
C          4.91678        22.73220        -0.98412
C          6.12502        24.88681        -1.16403
C          4.81823        25.61723        -0.92404
C          6.17374        27.81186        -0.84727
C          5.03327        26.97924        -0.27859
C          5.96011        29.28287        -0.78173
C          5.00049        29.80347         0.07980
C          6.09482        32.12692        -0.23880
C          4.96588        31.26688         0.27142
C          6.31177        33.48988         0.28482
C          5.32050        34.07096         1.08698
C          6.42430        36.24212         0.84189
C          5.35370        35.46100         1.36098
C          6.45846        37.66076         1.13064
C          5.41353        38.24513         1.85575
C          8.61950         3.58921         1.05816
C          7.40037         4.20128         0.73469
C          8.58695         6.35492         0.51801
C          7.38702         5.61131         0.41830
C          8.52679         7.80924         0.33086
C          7.37477         8.41872        -0.37242
C          8.57226        10.58058        -0.52506
C          7.33035         9.88594        -0.44984
C          8.56227        11.99817        -0.78743
C          7.32341        12.68317        -0.90520
C          8.55317        14.81854        -1.06184
C          7.32145        14.10534        -1.07119
C          8.56090        16.24307        -1.23454
C          7.33416        16.92256        -1.39595
C          8.62247        19.11778        -1.64335
C          7.38044        18.34671        -1.74195
C          8.57164        20.52643        -1.67944
C          7.35158        21.26439        -1.51829
C          8.54647        23.41931        -1.57523
C          7.34676        22.71518        -1.47563
C          8.51800        24.88551        -1.91736
C          7.26515        25.61981        -1.46322
C          8.51397        27.69396        -1.83605
C          7.29149        27.07026        -1.54325
C          8.59627        29.11598        -2.07313
C          6.80770        30.20981        -1.49903
C          8.33200        32.23803        -1.47017
C          7.11817        31.48891        -1.07393
C          8.49765        33.62723        -0.96111
C          7.41230        34.25259        -0.20183
C          8.50894        36.48495        -0.58484
C          7.45934        35.63102         0.09316
C          8.68352        37.83071         0.08037
C          7.60852        38.41323         0.75900
C         11.01251         3.71277         1.57200
C          9.83742         4.33279         1.18250
C         11.02762         6.52460         0.95735
C          9.81707         5.77000         0.92040
C         11.07563         7.88216         0.49586
C          9.82132         8.60578         0.27511
C         11.07896        10.49444        -0.88622
C          9.79501         9.89953        -0.38430
C         11.05032        12.00501        -0.80025
C          9.79793        12.70240        -0.82162
C         11.02286        14.83844        -0.88754
C          9.79003        14.12115        -0.92982
C         11.01965        16.26592        -0.99405
C          9.80118        16.96931        -1.22847
C         11.08193        19.07792        -1.28834
C          9.83973        18.39095        -1.40773
C         11.14715        20.51681        -1.58884
C          9.83424        21.27635        -1.80488
C         11.00008        23.41417        -1.31980
C          9.81752        22.73810        -1.56493
C         10.90841        24.84823        -0.94586
C          9.75636        25.59556        -1.46656
C         10.92108        27.73795        -1.26121
C          9.77015        26.98522        -1.57453
C         10.97694        29.18025        -1.69770
C          9.66425        29.91407        -1.73783
C         10.93391        32.11724        -1.52357
C          9.66823        31.39856        -1.79868
C         10.92069        33.60977        -1.59479
C          9.69145        34.33431        -1.16403
C         11.02019        36.43086        -0.83158
C          9.80339        35.73173        -0.82144
C         11.08163        37.84161        -0.46717
C          9.90392        38.50425        -0.03075
C         13.51856         3.76043         1.82828
C         12.22543         4.51119         1.94245
C         13.48854         6.53042         1.14296
C         12.27209         5.87194         1.28885
C         13.51414         8.03550         0.99745
C         12.27731         8.59154         0.33887
C         13.53942        10.56591        -0.39647
C         12.31067         9.89698        -0.22032
C         13.53397        11.94406        -1.05611
C         12.24708        12.70052        -0.81662
C         13.46920        14.85290        -0.56578
C         12.25191        14.13101        -0.77006
C         13.43364        16.25474        -0.53262
C         12.24264        16.97504        -0.82701
C         13.49720        19.14046        -0.71549
C         12.26682        18.40523        -0.93507
C         13.50768        20.58583        -0.80714
C         12.35710        21.26641        -1.21340
C         13.55219        23.49401        -0.76056
C         12.30847        22.72755        -1.31021
C         13.37279        24.85619        -0.21590
C         12.06985        25.59817        -0.35288
C         13.27332        28.00874        -0.31210
C         12.03057        27.12419        -0.49575
C         13.29903        29.33599        -0.95298
C         12.11201        29.99834        -1.17367
C         13.39695        32.11566        -0.94044
C         12.10813        31.42975        -1.27180
C         13.47113        33.58509        -1.12825
C         12.23390        34.34584        -1.51105
C         13.49091        36.42546        -0.99847
C         12.26955        35.77373        -1.11291
C         13.54032        37.83165        -0.66438
C         12.31017        38.50693        -0.42870
C         15.96803         3.69804         1.71430
C         14.71007         4.40491         1.59850
C         15.95486         6.46655         0.97794
C         14.73478         5.82473         1.27162
C         15.96025         7.82501         0.49432
C         14.79096         8.58420         0.42413
C         16.03126        10.51337        -0.54908
C         14.76708         9.88869        -0.16116
C         16.03923        12.06802        -0.76997
C         14.76297        12.75535        -0.70819
C         15.96454        14.83602        -0.25109
C         14.73402        14.12919        -0.45398
C         15.93452        16.26789         0.07379
C         14.61759        17.01287        -0.10499
C         15.86939        19.16552        -0.00653
C         14.66009        18.46509        -0.32251
C         15.84242        20.56336         0.06450
C         14.68762        21.29708        -0.34572
C         15.81443        23.39811         0.31890
C         14.67268        22.70352        -0.22788
C         15.73956        24.79862         0.56310
C         14.40149        25.34146         0.54796
C         15.82868        27.78378         0.19017
C         14.50560        27.48159         0.30802
C         16.28978        28.94025        -0.56090
C         14.52999        30.01823        -1.24880
C         16.00557        32.01511        -1.11467
C         14.67091        31.36744        -1.10460
C         16.05118        33.49201        -1.05556
C         14.80018        34.22842        -1.36068
C         16.04618        36.38614        -0.89273
C         14.78086        35.73838        -1.26412
C         16.02316        37.80260        -0.66398
C         14.77080        38.49204        -0.58134
C         18.43824         3.64292         1.71997
C         17.16714         4.32369         1.49845
C         18.42042         6.30123         0.80145
C         17.20240         5.72064         1.07504
C         18.50296         7.69597         0.32498
C         17.23960         8.44245         0.08596
C         18.47702        10.61567        -0.09088
C         17.29502         9.90985        -0.11133
C         18.49752        12.06040        -0.28375
C         17.28135        12.77145        -0.46481
C         18.45210        14.92339        -0.14034
C         17.22371        14.18185        -0.28953
C         18.43236        16.35130        -0.01534
C         17.18284        17.05270         0.04705
C         18.36005        19.19281         0.29489
C         17.12880        18.44539         0.15869
C         18.32430        20.59101         0.52624
C         16.99171        21.24695         0.76101
C         18.19653        23.47217         0.89751
C         17.02410        22.73634         0.58540
C         18.14305        24.90554         1.03246
C         16.89195        25.55718         0.88953
C         18.09636        27.83193         1.27996
C         16.83760        27.04624         1.01404
C         18.12707        29.32616         0.96594
C         17.17878        29.84948        -0.05612
C         18.43189        32.06119        -0.15208
C         17.28421        31.23406        -0.59214
C         18.45188        33.46036        -0.42742
C         17.23530        34.17720        -0.81879
C         18.46039        36.34781        -0.53939
C         17.23397        35.64245        -0.77115
C         18.46206        37.77969        -0.49175
C         17.23652        38.48546        -0.51032
C         19.62021         4.19159         1.37546
C         20.93261         6.30333         0.86492
C         19.67671         5.49024         0.61739
C         20.97963         7.64389         0.79128
C         19.74983         8.46764         0.64297
C         20.98170        10.71784         0.21534
C         19.73150         9.95719         0.39074
C         20.95337        12.04912        -0.03772
C         19.71349        12.78588        -0.16766
C         20.89615        14.98983        -0.10030
C         19.69300        14.22255        -0.15675
C         20.87457        16.36123        -0.00635
C         19.64976        17.08426         0.05998
C         20.79556        19.29138         0.38215
C         19.61367        18.51605         0.23428
C         20.74568        20.64997         0.61661
C         19.50469        21.33829         0.72325
C         20.59503        23.52448         1.32018
C         19.44648        22.77116         1.00271
C         20.55246        24.90352         1.47473
C         19.35683        25.65673         1.30930
C         20.57494        27.85618         1.41159
C         19.36752        27.08498         1.36666
C         20.62893        29.22159         1.29978
C         19.43761        30.05886         1.06034
C         20.71923        32.17052         0.65690
C         19.54570        31.42898         0.46178
C         20.78007        33.51382         0.30366
C         19.65063        34.19112        -0.18892
C         20.88259        36.36959        -0.28123
C         19.68748        35.64348        -0.36390
C         20.88587        37.77526        -0.31132
C         19.69674        38.47637        -0.38024
O          3.08754        18.60853         0.52468
O         17.11326        27.54936         2.35186
O          6.52050        18.68813        -2.87075
O         17.98307         7.78642        -1.05419
O         10.65613        20.86141        -2.93939
O         15.57318        29.21809        -1.73164
O          3.00486         5.60651        -1.39306
O         14.20199        26.51508         1.27819
O          3.55270        15.68164        -2.53523
O          8.83533        32.02275        -2.81270
O         16.98696        31.41207        -2.00596
O         12.21064        27.92792         0.71885
O          1.67920         8.24283         1.13191
O         15.08326        16.59839         1.23070
O          7.44744        29.68904        -2.62573
O         13.34560        33.02644         0.22636
O         16.11139        11.09881        -1.88769
O          1.53421        21.03353        -1.65538
O         18.42024        30.11368         2.14992
O          4.76025        32.05668        -0.94254
O          6.96877         7.76691        -1.62331
O         11.04679        25.06654         0.54854
O         19.56028         9.39851         1.76401
O         13.31060        23.33921        -2.19347
O          2.62216        26.85411         2.30626
O          6.22202        27.20066         0.51911
O          4.90298        32.18836         2.60165
O          8.94221         8.57775         1.48855
O         14.83727        35.03682        -2.56815
O         11.62034        34.09650        -2.80866
O         13.46872         8.54953         2.38796
H         12.59918         8.29047         2.76335
O         11.34609        29.08004        -3.14653
H         11.14079        29.94277        -3.56941
O         16.70619        21.05208         2.20434
H         17.42894        21.48728         2.70552
O          4.27881        25.95449        -2.24968
H          4.05234        25.11657        -2.70667
O          8.50990        24.94442        -3.39110
H          7.73419        24.43451        -3.70719
O         11.19252        10.15074        -2.30672
H         11.98798        10.63383        -2.65098
O          7.96952        36.79136        -1.91930
H          7.92198        35.94779        -2.41844
O         19.70708         5.13789        -0.81035
H         19.31792         5.88939        -1.30999
O         13.55794        11.69203        -2.50782
H         14.46150        11.33352        -2.70520
O         12.07177         4.79675         3.40020
H         12.88304         5.27224         3.68257
H          1.26361         2.30793         1.03405
H         -0.89473         3.51430         0.95013
H         -0.99007         5.95799         0.51133
H         -1.00877         7.75314        -0.80005
H         -0.98557        10.13707        -1.24488
H         -1.04301        12.05248        -1.29016
H         -1.07095        14.47387        -1.55307
H         -1.05488        16.49057        -1.74644
H         -1.04894        18.92000        -1.33963
H         -0.81021        20.64835         0.68782
H         -0.61037        22.99669         1.21987
H         -0.68322        24.92046         1.11853
H         -0.62439        27.27731         1.65543
H         -0.36083        29.11492         2.50342
H         -0.19383        31.47466         3.09843
H          0.00268        33.28672         3.66402
H          0.12909        35.68998         4.13243
H          1.31282        37.86375         3.96425
H          3.72006         2.37716         0.96010
H          3.26935        39.18876         3.20040
H          6.17364         2.41587         0.99659
H          5.44161        39.32487         2.06581
H          8.63569         2.51501         1.29642
H          7.70091        39.44946         1.11993
H         11.02266         2.62742         1.75517
H          9.98955        39.52964         0.36122
H         13.52232         2.69266         2.09665
H         12.33342        39.57208        -0.15367
H         15.94509         2.64147         2.02102
H         14.78374        39.57362        -0.37978
H         18.40627         2.65552         2.20593
H         17.23843        39.57922        -0.39457
H         20.56145         3.65191         1.55884
H         21.86804         5.74042         1.01029
H         21.93476         8.16830         0.94720
H         21.94226        10.20370         0.35868
H         21.90717        12.58830        -0.11449
H         21.87008        14.48473        -0.13565
H         21.83081        16.89984         0.03001
H         21.77945        18.80689         0.32409
H         21.68959        21.20023         0.72832
H         21.56290        23.02022         1.44651
H         21.48766        25.42015         1.72799
H         21.53182        27.32521         1.51705
H         21.61808        29.70180         1.29255
H         21.59947        31.70024         1.11532
H         21.71434        34.05913         0.48958
H         21.84534        35.84942        -0.19017
H         21.84174        38.31349        -0.24734
H         19.69222        39.57542        -0.35970
