         244
 CSIRO Nanostructure Databank - Neutral Graphene Oxide Data Set
C          1.35151         2.18946         1.40806
C          1.27813         3.43186         0.82823
C          2.57897         1.66482         1.88279
C          2.47710         4.33628         0.88276
C          1.33284         6.50481         0.46771
C          1.32159         7.80335         0.15141
C          2.38468         5.56544        -0.07567
C          2.41123         8.43464        -0.62985
C          1.09340        10.71429        -0.49515
C          1.10280        12.06340        -0.32622
C          2.31094         9.96158        -0.84022
C          2.31492        12.83954        -0.41952
C          1.14817        15.01942        -0.04665
C          1.18678        16.36951         0.21804
C          2.33878        14.24505        -0.21805
C          2.42257        17.07676         0.35960
C          2.45328        18.48371         0.62087
C          3.80880         2.30279         1.56115
C          3.76643         3.55100         0.84199
C          5.05450         1.69225         1.81457
C          4.91455         4.07008         0.26474
C          3.77699         6.27870        -0.18975
C          3.72141         7.71728        -0.76302
C          4.77271         5.17640        -0.77804
C          4.82192         8.47999        -1.13681
C          3.56469        10.73530        -0.86491
C          3.53787        12.10208        -0.65698
C          4.85184         9.95023        -0.70563
C          4.79641        12.88530        -0.75564
C          3.60835        14.95062        -0.09412
C          3.63853        16.36925         0.22421
C          4.79887        14.26738        -0.24345
C          4.87919        17.06642         0.34224
C          3.64164        19.16271         0.72875
C          4.89638        18.48107         0.59141
C          6.25515         2.28870         1.36080
C          6.17820         3.46527         0.54392
C          7.53038         1.71784         1.62458
C          7.38979         4.08608         0.10681
C          6.10504         5.70637        -1.20674
C          6.06179         7.95132        -1.64627
C          7.32557         5.20443        -0.81945
C          7.26880         8.64676        -1.69705
C          6.09178        10.69974        -1.11007
C          6.08195        12.17582        -1.01364
C          7.26513        10.05915        -1.40302
C          7.38317        12.82583        -0.72438
C          6.07830        14.90893         0.09384
C          6.11884        16.37492         0.24103
C          7.37235        14.18315        -0.13505
C          7.34607        17.05044         0.32007
C          6.12473        19.15316         0.70455
C          7.36411        18.47491         0.55882
C          8.71047         2.33950         1.18274
C          8.63298         3.59356         0.49081
C          9.99053         1.70972         1.31257
C          9.91743         4.36825         0.26875
C          8.57836         5.77610        -1.27895
C          8.54525         7.97734        -1.89567
C          9.79936         5.52692        -0.70640
C          9.75684         8.49840        -1.50993
C          8.55336        10.78914        -1.48734
C          8.54706        12.18664        -0.99017
C          9.84229         9.98701        -1.45132
C          9.87865        12.88481        -0.94448
C          8.61865        14.96583        -0.17018
C          8.60261        16.35186         0.13834
C          9.82903        14.27551        -0.34169
C          9.82929        17.06185         0.18235
C          8.59683        19.15919         0.63482
C          9.84407        18.50062         0.42150
C         11.12661         2.20691         0.66718
C         11.01784         3.43060        -0.22549
C         12.34610         1.52108         0.69976
C         12.32442         4.18256        -0.42911
C         11.03375         6.22823        -1.06198
C         11.02162         7.68007        -1.48042
C         12.24933         5.56883        -0.87941
C         12.31183         8.47945        -1.22621
C         11.07683        10.61761        -0.91485
C         10.95816        11.99121        -0.27070
C         12.24222         9.91943        -0.85941
C         12.26209        12.76692        -0.34405
C         11.03180        14.94600        -0.07899
C         11.05379        16.34422         0.11551
C         12.24843        14.14385         0.27313
C         12.32905        17.02433         0.19113
C         11.06017        19.17879         0.41607
C         12.31168        18.50876        -0.09027
C         13.53408         2.10978         0.18673
C         13.50914         3.49112        -0.29078
C         14.73292         1.39784         0.24263
C         14.83418         4.02981        -0.81466
C         13.53414         6.29806        -1.07830
C         13.55116         7.76080        -0.86313
C         14.83645         5.55083        -0.94938
C         14.75766         8.44587        -0.67195
C         13.45460        10.52645        -0.15852
C         13.54156        12.02440        -0.37516
C         14.77762         9.86401        -0.45370
C         14.78924        12.73566        -0.01216
C         13.55481        14.87566         0.18268
C         13.52712        16.31615         0.24760
C         14.74383        14.15204         0.19294
C         14.80509        17.02635         0.24715
C         13.59671        19.18394         0.28804
C         14.78630        18.49563         0.31720
C         16.01088         2.06078         0.16341
C         16.00755         3.46339        -0.06175
C         17.19917         1.35816         0.39227
C         17.19704         4.26605         0.35829
C         16.04501         6.31687        -0.57318
C         16.01831         7.73187        -0.61267
C         17.23176         5.66311        -0.19710
C         17.23599         8.45753        -0.53494
C         15.97923        10.58715        -0.33391
C         15.99247        12.02199        -0.06265
C         17.23930         9.90034        -0.44407
C         17.25067        12.72678         0.06491
C         15.99913        14.86073         0.62487
C         15.98520        16.33316         0.28754
C         17.27338        14.13591         0.27891
C         17.28646        17.05010         0.03809
C         16.03643        19.16454         0.55568
C         17.25204        18.48651         0.51823
C         18.50803         2.05416         0.59650
C         18.50074         3.51470         0.18798
C         19.71184         1.35299         0.01725
C         19.67076         4.18527         0.11886
C         18.44620         6.37356        -0.18597
C         18.45603         7.74256        -0.46993
C         19.70643         5.68738         0.27470
C         19.72917         8.45672        -0.81182
C         18.46743        10.60047        -0.31131
C         18.47508        12.02161        -0.07838
C         19.72102         9.91141        -0.41100
C         19.71851        12.71428         0.06806
C         18.48230        14.83173         0.38967
C         18.50914        16.28170         0.48759
C         19.72812        14.11455         0.35024
C         19.67384        16.95460         0.75470
C         18.47805        19.13435         0.75572
C         19.69839        18.41481         0.78706
C         20.87145         2.01549        -0.08563
C         20.96678         3.44307         0.40400
C         22.17110         4.18301        -0.10610
C         20.97781         6.34230        -0.22535
C         20.99472         7.70350        -0.46196
C         22.16768         5.51819        -0.31996
C         22.20503         8.47957        -0.56501
C         20.93806        10.58526        -0.32324
C         20.95674        12.00738        -0.02968
C         22.17021         9.84393        -0.49634
C         22.15194        12.70559         0.20629
C         20.95105        14.78199         0.62321
C         20.93014        16.20532         1.14878
C         22.14298        14.05826         0.55633
C         22.17744        17.00080         0.84967
C         20.92563        19.08609         0.84771
C         22.15115        18.36302         0.79340
O          6.76170        14.18755         1.21862
O         14.32972         5.93029        -2.28113
O          5.37060        12.83211        -2.14407
O         11.89921         8.06652        -2.58109
O          6.04693         6.67427        -2.19905
O          8.48757         6.66026        -2.35259
O          2.04593         9.00173        -1.93171
O         12.94861        12.58464        -1.60420
O          9.34280        10.60180        -2.71465
O          4.30730         4.60026        -1.96969
O         13.21076        10.33315         1.27204
H         12.32162        10.71656         1.47396
O         12.07399        13.88759         1.73644
H         11.94461        14.75853         2.17118
O         12.22849        18.62500        -1.57102
H         11.46132        18.08456        -1.85945
O         15.96475        14.82700         2.10575
H         15.08433        15.15741         2.38551
O          4.96610         9.82113         0.77348
H          5.16292        10.70967         1.14163
O         21.08150         3.41802         1.86877
H         20.33395         2.84262         2.18844
O         18.68399         2.09107         2.07285
H         17.99600         2.72494         2.39787
O         10.28831        13.10800        -2.31337
H         10.14337        12.26342        -2.81095
O         10.34929         4.86790         1.56347
H          9.61500         5.38559         1.95369
O         19.74230         8.47319        -2.29274
H         20.51927         9.00588        -2.56751
O          2.44644         4.92685         2.24976
H          2.55233         4.18595         2.88590
O         17.11100         4.44293         1.83580
H         17.86205         5.04829         2.06908
O         14.96491         3.46813        -2.16247
H         14.60720         4.15663        -2.77602
O         20.90530        16.06971         2.61746
H         20.83806        16.97484         2.98906
O         19.71032         5.85030         1.74656
H         20.38948         5.21049         2.08623
O         10.61429        11.73787         1.11461
H         10.86792        12.54182         1.63724
O          4.27405         6.55124         1.14161
H          3.64315         6.17960         1.80938
O         10.60041         2.95737        -1.53095
H         11.32929         2.42377        -1.91084
O         17.41274        17.12517        -1.42688
H         16.63694        17.62339        -1.76283
O          1.91160         5.14517        -1.35294
H          2.69648         4.78475        -1.86918
H          0.44702         1.56841         1.48899
H          0.32453         3.81899         0.44273
H          2.59597         0.68378         2.37886
H          0.51072         6.07969         1.06304
H          0.49800         8.44082         0.50467
H          0.13512        10.17697        -0.47562
H          0.15302        12.57396        -0.11477
H          0.16818        14.53300        -0.14758
H          0.24608        16.92946         0.32374
H          1.49950        19.02114         0.72653
H          5.09224         0.74033         2.36481
H          3.64535        20.24521         0.92280
H          7.59062         0.76207         2.16618
H          6.12897        20.23602         0.90090
H         10.06425         0.76669         1.87693
H          8.59479        20.24447         0.81717
H         12.41093         0.54409         1.20373
H         11.07155        20.26887         0.57044
H         14.71341         0.34325         0.55683
H         13.59953        20.27879         0.40494
H         17.15341         0.27662         0.58957
H         16.02280        20.24203         0.78216
H         19.61916         0.30561        -0.30747
H         18.49346        20.22221         0.92579
H         21.77054         1.52701        -0.49215
H         23.10291         3.61289        -0.24020
H         23.09743         5.99505        -0.66511
H         23.18115         7.97394        -0.58262
H         23.12170        10.39203        -0.51678
H         23.11825        12.18625         0.16338
H         23.10127        14.53935         0.79397
H         23.14779        16.48517         0.82930
H         20.94337        20.18508         0.85263
H         23.09089        18.92563         0.69072
