         344
 CSIRO Nanostructure Databank - Neutral Graphene Oxide Data Set
C          1.25703         3.46329         0.75645
C          0.10427         4.18518         0.93524
C          1.15163         6.30293         0.26000
C          0.06086         5.59863         0.75114
C          1.14120         7.72131        -0.00487
C         -0.06487         8.45965         0.09450
C          1.10437        10.55953        -0.31572
C         -0.09081         9.82910        -0.06173
C          1.10604        12.00300        -0.33850
C         -0.10215        12.76656        -0.39880
C          1.12131        14.90190        -0.17547
C         -0.12062        14.13325        -0.36476
C          1.12560        16.37894         0.10097
C         -0.14209        17.13056         0.26970
C          1.13872        19.20516         0.53837
C         -0.11460        18.45307         0.52901
C          1.14364        20.63056         0.51076
C         -0.07783        21.40555         0.44040
C          1.11520        23.54721         0.73900
C         -0.10779        22.76282         0.48903
C          1.14275        25.09366         0.65008
C         -0.11664        25.75291         0.11486
C          1.19503        27.72757        -0.51774
C         -0.06573        26.99439        -0.40906
C          1.21787        29.14352        -0.74430
C          3.70676         3.54285         0.55461
C          2.48461         4.13093         0.39426
C          3.61328         6.27429        -0.50979
C          2.36571         5.53462        -0.09209
C          3.60323         7.74533        -0.44919
C          2.35349         8.43089        -0.32984
C          3.54244        10.60712        -0.91904
C          2.31830         9.84725        -0.45746
C          3.56242        12.00836        -0.33354
C          2.36603        12.67805        -0.17350
C          3.60511        14.85052         0.53795
C          2.32664        14.10756         0.23782
C          3.62744        16.32311         0.47814
C          2.32752        17.01698         0.81103
C          3.60289        19.17938         0.45072
C          2.35493        18.50307         0.55381
C          3.59805        20.60036         0.35217
C          2.39099        21.30695         0.43912
C          3.67416        23.49803         0.31350
C          2.41025        22.77752         0.60099
C          3.64514        24.89836         0.13690
C          2.32955        25.53760        -0.23638
C          3.64060        27.73958        -0.30847
C          2.38929        27.04134        -0.34589
C          3.65436        29.17565        -0.52939
C          2.40234        29.83558        -0.76606
C          6.22084         3.54403         0.26296
C          4.97524         4.35066         0.51251
C          6.13631         6.38833        -0.26104
C          4.93927         5.50773        -0.52444
C          6.10052         7.74116        -0.35986
C          4.83536         8.47243        -0.52265
C          6.09091        10.59862        -0.91561
C          4.83462         9.85461        -0.69314
C          6.09431        12.08464        -0.62231
C          4.85093        12.66458        -0.03653
C          6.12649        14.91231         0.13669
C          4.90115        14.11679         0.39392
C          6.10726        16.29907         0.22483
C          4.83640        17.02243         0.39916
C          6.12205        19.17047         0.77729
C          4.83645        18.45036         0.45366
C          6.13954        20.62660         0.38568
C          4.87002        21.30738        -0.03855
C          6.11373        23.49236         0.15491
C          4.87835        22.79005         0.23788
C          6.09430        24.91796         0.15746
C          4.85265        25.62106         0.08111
C          6.07557        27.83262         0.27870
C          4.83489        27.05369        -0.06717
C          6.10924        29.23354        -0.29310
C          4.86809        29.86970        -0.57195
C          8.63303         3.50749        -0.19682
C          7.40251         4.19950         0.02865
C          8.57837         6.33876        -0.65563
C          7.43162         5.71127         0.14418
C          8.64997         7.80462        -0.36130
C          7.35732         8.55809        -0.10417
C          8.62513        10.64040        -0.61088
C          7.39955         9.82264        -0.96883
C          8.60967        12.12349        -0.87028
C          7.35088        12.82486        -0.42024
C          8.58378        14.94954        -0.26655
C          7.35088        14.19326        -0.15759
C          8.59312        16.34197        -0.09519
C          7.35288        17.05120         0.14337
C          8.60206        19.17588         0.30208
C          7.36783        18.43289         0.34388
C          8.59031        20.58468         0.32463
C          7.34402        21.31375         0.28292
C          8.56931        23.49352         0.02019
C          7.35184        22.76512         0.10730
C          8.54085        24.91031        -0.00133
C          7.33026        25.64747         0.08788
C          8.57123        27.79017         0.02313
C          7.34509        27.06419         0.04575
C          8.57849        29.24674        -0.15867
C          7.32162        29.90128        -0.38673
C         11.08417         3.45779        -0.36090
C          9.85629         4.16860        -0.38634
C         11.07422         6.31446        -0.52624
C          9.89027         5.62051        -0.48810
C         11.10207         7.76288        -0.44566
C          9.83449         8.48443        -0.39456
C         11.05762        10.63402        -0.20776
C          9.83857         9.95959        -0.37931
C         11.04888        12.10149         0.10057
C          9.83846        12.84419        -0.40294
C         11.10368        14.95559        -0.61016
C          9.82289        14.21244        -0.35706
C         11.10909        16.39575        -0.20258
C          9.84678        17.07833        -0.03985
C         11.13448        19.14399         0.53034
C          9.83902        18.45462         0.17932
C         11.13571        20.62967         0.29761
C          9.84504        21.30197        -0.10403
C         11.03285        23.46740         0.24056
C          9.84345        22.79473         0.10999
C         11.08984        24.91361         0.01012
C          9.78914        25.66320        -0.12939
C         11.03975        27.83779         0.44615
C          9.77998        27.11222         0.06653
C         11.06251        29.27027        -0.05998
C          9.78874        29.91064        -0.29101
C         13.52747         3.43938        -0.22865
C         12.32656         4.11947        -0.41296
C         13.58723         6.30299        -0.26429
C         12.36950         5.58480        -0.78534
C         13.55888         7.72433        -0.15526
C         12.30559         8.43167        -0.25373
C         13.58915        10.58958        -0.10487
C         12.29467         9.87405         0.18670
C         13.59523        12.03621        -0.51547
C         12.34606        12.81940        -0.18447
C         13.59056        14.93387        -0.28372
C         12.35701        14.18706        -0.24330
C         13.56973        16.30993        -0.39409
C         12.33299        17.06491        -0.24882
C         13.56837        19.21362        -0.03234
C         12.38814        18.48748         0.00407
C         13.60245        20.63469         0.25303
C         12.31857        21.31378         0.36511
C         13.57323        23.52731         0.36752
C         12.29984        22.78383         0.69396
C         13.56290        24.91016         0.32908
C         12.33423        25.67855         0.26279
C         13.55985        27.82064        -0.11029
C         12.30675        27.04970         0.18818
C         13.52288        29.28227         0.35038
C         12.24805        29.94917        -0.11130
C         15.94051         3.43507         0.16680
C         14.77579         4.12996        -0.05608
C         15.98205         6.30567         0.23361
C         14.75935         5.59563        -0.01297
C         15.98985         7.73742         0.18938
C         14.76706         8.44037         0.06191
C         16.05796        10.59080        -0.01537
C         14.77588         9.89517        -0.01978
C         16.05398        12.04539        -0.06840
C         14.86967        12.73732        -0.14051
C         16.09219        14.85787        -0.58630
C         14.87675        14.23377         0.09118
C         16.12708        16.35302        -0.39929
C         14.84137        17.04903        -0.57366
C         16.11386        19.21732        -0.14412
C         14.83374        18.54475        -0.41813
C         16.07980        20.71433        -0.28760
C         14.79895        21.36514         0.20795
C         16.05831        23.50031         0.30991
C         14.81737        22.79961         0.32614
C         16.09601        24.92645         0.39300
C         14.82386        25.64077         0.52639
C         16.07365        27.83433         0.13060
C         14.81322        27.14745         0.41243
C         16.02196        29.26046        -0.11360
C         14.80528        29.96071        -0.05370
C         18.45473         3.45755         0.08497
C         17.20290         4.10873         0.61045
C         18.42173         6.30245         0.38300
C         17.19421         5.59773         0.37611
C         18.42637         7.73364         0.43283
C         17.23388         8.44895         0.31040
C         18.51457        10.60798         0.30911
C         17.24364         9.89963         0.20894
C         18.54322        12.03479         0.20788
C         17.32535        12.76914         0.01723
C         18.57523        14.88965        -0.05384
C         17.35658        14.15141        -0.15765
C         18.56757        16.32369        -0.10681
C         17.30371        17.04864        -0.22425
C         18.56653        19.22334         0.01461
C         17.29968        18.51128        -0.11912
C         18.58122        20.64511         0.16365
C         17.34342        21.39999         0.16606
C         18.54718        23.53844         0.60431
C         17.30941        22.77040         0.34486
C         18.55580        24.99368         0.34916
C         17.29373        25.67348         0.31586
C         18.51442        27.81766        -0.04530
C         17.27850        27.11614         0.15438
C         18.48383        29.23437        -0.28364
C         17.25568        29.92821        -0.33373
C         19.60417         4.17333        -0.06242
C         20.85096         6.33870        -0.06098
C         19.64656         5.59058         0.16262
C         20.89784         7.68730         0.12052
C         19.73401         8.41527         0.75027
C         20.92727        10.62105         0.61783
C         19.71775         9.90700         0.51050
C         20.96584        11.99855         0.48592
C         19.77827        12.73987         0.27574
C         20.99415        14.92852         0.24551
C         19.79270        14.18247         0.15892
C         20.98611        16.30494         0.15653
C         19.77768        17.03448        -0.00022
C         21.00093        19.20910         0.05174
C         19.78302        18.49782         0.00793
C         21.01951        20.59099         0.16738
C         19.82513        21.32154         0.26935
C         21.04778        23.57587         0.14791
C         19.87121        22.78151         0.52407
C         20.99393        24.93100         0.06639
C         19.76421        25.68104         0.18615
C         20.94684        27.86392        -0.17990
C         19.75839        27.12469        -0.01399
C         20.91655        29.24820        -0.40117
C         19.71212        29.92983        -0.46502
O          5.07104        13.04110         1.37026
O          2.73997        14.32926         1.63202
O         14.79984        17.93442        -1.76977
O         14.73121        26.52927         1.72100
O          2.69677         5.71640        -1.52804
O          1.39952        15.89034        -1.25007
O         19.27539        23.14749         1.81623
O          1.84916        23.12046         1.93943
O          5.96530        11.58938        -2.01274
O         10.58123        25.25787        -1.34359
O         13.67044        27.86420        -1.56397
H         13.31430        27.02848        -1.93248
O         15.91507        14.61399        -2.01651
H         16.57552        15.15205        -2.50154
O         10.99536        27.94316         1.91432
H         11.85645        28.35394         2.18707
O          6.17446        19.17204         2.26156
H          6.19284        18.23616         2.55667
O         12.25597        22.82273         2.16830
H         11.45938        22.32833         2.45781
O         10.90564        12.16897         1.57857
H         11.45902        11.43187         1.94743
O          2.11104        16.86590         2.24737
H          2.25606        15.90934         2.45746
O          8.61746        12.24940        -2.35778
H          7.67401        12.15122        -2.64343
O          7.35040         8.94916         1.28864
H          7.44197         8.11316         1.80488
O          8.24894         6.23514        -2.07782
H          7.90895         7.10766        -2.38087
O         13.60570        12.01873        -2.00520
H         14.03496        12.85222        -2.30262
O         12.51740         5.61119        -2.25209
H         11.68331         5.26455        -2.63563
O         15.04474        14.44078         1.52481
H         14.29491        14.00750         1.98408
O          5.08954         4.99726         1.83740
H          4.95270         4.30136         2.51516
O          2.01410        25.01491        -1.56795
H          2.70143        25.33464        -2.18929
O          5.99614        28.01525         1.74580
H          5.16207        28.49717         1.93251
O          9.82815        21.15876        -1.58071
H         10.53258        21.73785        -1.94385
O          4.87867        21.21668        -1.52344
H          5.73529        21.58207        -1.83460
O          3.38631        10.77823        -2.37747
H          3.43611         9.88672        -2.78285
O          7.65134         6.04889         1.54765
H          6.85068         5.71194         2.02420
O         12.23694         9.79562         1.69091
H         11.52526         9.15625         1.91540
O          7.56146         9.33237        -2.33224
H          7.56516        10.11361        -2.92776
O         11.16731        15.00450        -2.08698
H         11.05873        14.08630        -2.41908
O         16.04671        20.92609        -1.75485
H         15.46722        20.23103        -2.13908
O         19.92714         8.26697         2.20849
H         19.93086         7.30540         2.40176
O         17.25629         3.92900         2.08782
H         18.09488         4.33471         2.39519
O         11.21748        18.99755         2.00649
H         12.07843        19.37652         2.28766
O          5.11408         4.93148        -1.83186
H          4.21658         4.87195        -2.23751
O         13.47819        29.25051         1.82065
H         13.59886        30.16657         2.14790
O          1.32480        25.60790         1.98004
H          1.71773        24.87856         2.51780
H          1.28318         2.38554         0.97229
H         -0.81026         3.67491         1.26907
H         -0.87512         6.11815         0.99699
H         -1.00700         7.93543         0.30383
H         -1.04764        10.35785         0.04231
H         -1.05463        12.23815        -0.54532
H         -1.06487        14.67352        -0.51632
H         -1.10222        16.60311         0.17651
H         -1.06228        18.99046         0.66838
H         -1.02759        20.87451         0.28835
H         -1.06394        23.28436         0.34302
H         -1.09327        25.27609         0.28415
H         -0.99104        27.50990        -0.70906
H          0.26611        29.67209        -0.90000
H          3.76176         2.50614         0.92547
H          2.40668        30.92033        -0.94750
H          6.16810         2.44482         0.22206
H          4.86889        30.93197        -0.86153
H          8.62757         2.40710        -0.15334
H          7.32994        30.96424        -0.67586
H         11.06555         2.37051        -0.18586
H          9.78816        30.98258        -0.54444
H         13.51391         2.34565        -0.09798
H         12.26432        31.01527        -0.39058
H         15.92747         2.33434         0.14842
H         14.81324        31.05472        -0.18201
H         18.45106         2.37024        -0.08133
H         17.25928        31.01523        -0.50414
H         20.53061         3.67194        -0.38225
H         21.73802         5.79884        -0.42649
H         21.83406         8.22963        -0.07490
H         21.86124        10.07920         0.82079
H         21.93416        12.50948         0.56710
H         21.95464        14.41797         0.39420
H         21.94401        16.83334         0.24153
H         21.96067        18.67927         0.01219
H         21.98782        21.10544         0.22827
H         21.98741        23.06211        -0.09993
H         21.91501        25.46825        -0.19711
H         21.92430        27.36634        -0.13482
H         21.86248        29.79298        -0.52929
H         19.69353        31.01352        -0.64914
