         638
 CSIRO Nanostructure Databank - Neutral Graphene Oxide Data Set
C         23.10244        69.69421         1.36887
C         23.11043        71.09278         1.42653
C         21.88653        71.82204         1.51454
C         23.07019        73.93718         1.42590
C         21.88118        73.21443         1.52678
C         25.44911        65.49004        -0.04618
C         25.47205        66.92247         0.44345
C         24.33388        67.52182         0.90361
C         25.66178        69.69030         1.26507
C         24.33780        68.91572         1.36991
C         25.59246        71.16932         1.16595
C         24.34813        71.83488         1.32227
C         25.52906        73.98861         1.16633
C         24.31902        73.26564         1.30329
C         28.22083        61.29069         0.66831
C         28.12279        62.75308         0.30332
C         26.89352        63.40621         0.38476
C         27.92910        65.52779        -0.15839
C         26.78143        64.79240         0.11663
C         27.82786        67.00277        -0.48461
C         26.70299        67.66583         0.28760
C         28.01516        69.77066         0.37042
C         26.81161        68.99105         0.65486
C         28.08290        71.16669         0.94496
C         26.76779        71.89864         0.95506
C         27.99475        74.04912         0.90282
C         26.75726        73.32603         0.99872
C         30.58883        57.14280        -0.71493
C         30.61019        58.53553        -0.46897
C         29.44924        59.22681        -0.01154
C         30.60677        61.35571        -0.25685
C         29.45061        60.60091         0.12126
C         30.53009        62.77655        -0.36800
C         29.28569        63.46324        -0.10458
C         30.29327        65.57474        -0.85747
C         29.18439        64.87465        -0.29164
C         30.33004        67.09484        -0.99992
C         29.17063        67.65775        -0.13691
C         30.32683        69.96853        -0.61113
C         29.13507        69.16975        -0.12453
C         30.38194        71.36192        -0.02738
C         29.24706        71.97828         0.44326
C         30.42767        74.14473         0.50915
C         29.21234        73.41337         0.64603
C         32.91930        52.91858        -1.13376
C         32.95559        54.29953        -1.32920
C         31.68306        55.05282        -1.62781
C         32.95452        57.17886        -1.26537
C         31.73478        56.48308        -1.15920
C         32.99003        58.57533        -1.07482
C         31.80532        59.27319        -0.72137
C         32.98356        61.44136        -1.02973
C         31.80618        60.70235        -0.66856
C         32.93038        62.87205        -1.18269
C         31.61475        63.46929        -0.96573
C         33.12978        65.89152        -1.62270
C         31.30940        64.79299        -1.37612
C         32.98437        67.17952        -1.12504
C         31.68525        67.72584        -0.54330
C         32.83841        69.96040        -0.54697
C         31.65626        69.24103        -0.55225
C         32.80863        71.41264        -0.41555
C         31.62459        72.08816        -0.12996
C         32.86453        74.22065         0.22493
C         31.62869        73.50888         0.18856
C         35.28110        48.61013        -0.43568
C         35.30183        50.00858        -0.69851
C         34.11168        50.75648        -0.89907
C         35.36213        52.87908        -1.09082
C         34.12449        52.17341        -1.02618
C         35.40400        54.28909        -1.22145
C         34.18093        54.99529        -1.36560
C         35.45531        57.16972        -1.35583
C         34.18718        56.45555        -1.75147
C         35.45020        58.58400        -1.28117
C         34.21827        59.31069        -1.22032
C         35.46740        61.41897        -1.36614
C         34.22069        60.72311        -1.20920
C         35.45925        62.89474        -1.67667
C         34.14143        63.60980        -1.39325
C         35.45386        65.72559        -1.02917
C         34.25182        65.04709        -1.38461
C         35.42671        67.13925        -0.82495
C         34.18617        67.85687        -0.77958
C         35.35542        69.96494        -0.50904
C         34.13660        69.27006        -0.57679
C         35.37706        71.44728        -0.56955
C         34.06489        72.18644        -0.51187
C         35.31853        74.25688         0.14524
C         34.08062        73.59372        -0.03868
C         37.65642        44.28353         0.09745
C         37.67689        45.71781         0.15688
C         36.38977        46.48614         0.34828
C         37.68311        48.61774        -0.04413
C         36.45352        47.92127        -0.12830
C         37.72922        50.00181        -0.31856
C         36.55969        50.68233        -0.68098
C         37.91439        52.84531        -1.09792
C         36.60591        52.10081        -1.09458
C         37.89769        54.32932        -1.04907
C         36.66046        55.01496        -1.16254
C         37.87358        57.16955        -0.91416
C         36.65801        56.45390        -1.16269
C         37.88497        58.58485        -0.96921
C         36.67599        59.30520        -1.19432
C         38.00369        61.44089        -1.51653
C         36.67491        60.73021        -1.31949
C         37.93916        62.90211        -1.09687
C         36.70496        63.59756        -1.13579
C         37.89988        65.69952        -0.63251
C         36.68833        64.99001        -0.90322
C         37.89330        67.12674        -0.52298
C         36.64109        67.85358        -0.60084
C         37.83412        70.04071        -0.45426
C         36.58382        69.26044        -0.49533
C         37.77143        71.45457        -0.00965
C         36.60436        72.14872        -0.12169
C         37.77984        74.27570         0.32272
C         36.55890        73.58948         0.13192
C         40.10338        39.97513        -0.00683
C         40.10178        41.39170        -0.07737
C         38.87693        42.12833        -0.01997
C         40.10594        44.30404        -0.29636
C         38.83501        43.53090        -0.02719
C         40.13086        45.61795         0.47453
C         38.86681        46.40824         0.22687
C         40.20878        48.52918         0.12272
C         38.89314        47.89170         0.50453
C         40.22220        49.93651        -0.42853
C         39.00451        50.75439         0.00627
C         40.30115        52.82273        -0.54298
C         39.11219        52.16110        -0.56232
C         40.39960        54.23630        -1.12600
C         39.11387        55.01529        -0.92976
C         40.29587        57.13551        -0.47312
C         39.12674        56.44214        -0.77242
C         40.18404        58.56228         0.00865
C         39.09060        59.32269        -0.69171
C         40.39029        61.40263        -0.58496
C         39.16759        60.69877        -0.85564
C         40.45518        62.86159        -1.00895
C         39.13677        63.58318        -0.82586
C         40.36258        65.70498        -0.38196
C         39.13497        64.98622        -0.58462
C         40.34158        67.10195        -0.27418
C         39.11585        67.80885        -0.34852
C         40.30450        70.00676         0.17593
C         39.13319        69.28814        -0.34303
C         40.28345        71.38960         0.35606
C         38.97515        72.09838         0.62804
C         40.23915        74.25528         0.49561
C         39.01687        73.59408         0.42833
C         42.51406        35.65261         0.34676
C         42.49267        37.08051         0.13087
C         41.30913        37.80554         0.12710
C         42.55525        39.93086        -0.02040
C         41.29871        39.23602         0.02423
C         42.58253        41.34916        -0.10540
C         41.35770        42.08429        -0.13954
C         42.57811        44.21383        -0.04178
C         41.38590        43.51736        -0.11268
C         42.59888        45.65418         0.10234
C         41.41545        46.37223         0.22921
C         42.67327        48.50303         0.09868
C         41.39454        47.81046         0.15784
C         42.67900        49.95829         0.10830
C         41.49239        50.68524        -0.10553
C         42.71693        52.78706         0.09827
C         41.51529        52.09439        -0.16733
C         42.81244        54.25677        -0.06479
C         41.67980        54.99966        -0.69571
C         42.55943        57.07254         0.57896
C         41.67434        56.53794        -0.59317
C         42.61577        58.58340         0.44164
C         41.50500        59.28721         0.06621
C         42.80546        61.41062         0.02841
C         41.54489        60.72994        -0.14561
C         42.94755        62.84428        -0.43490
C         41.64590        63.60652        -0.44997
C         42.83999        65.71452         0.04723
C         41.62515        64.97425        -0.28870
C         42.84534        67.11676         0.16671
C         41.62503        67.90448        -0.26611
C         42.78488        69.96009         0.49228
C         41.50068        69.18317         0.56706
C         42.75754        71.39951         0.08916
C         41.48674        72.12174         0.43754
C         42.71944        74.24309         0.49551
C         41.49144        73.54987         0.50568
C         44.93296        32.88982         0.86038
C         43.73022        33.54199         0.69729
C         44.95950        35.56431        -0.16529
C         43.68390        34.92732         0.33123
C         44.97523        37.06254        -0.00576
C         43.76247        37.77431         0.01894
C         45.02659        39.88465        -0.09191
C         43.77900        39.19798        -0.01216
C         45.04219        41.32351        -0.07853
C         43.84396        42.02857        -0.12210
C         45.05073        44.16207         0.41735
C         43.88577        43.52148        -0.33449
C         45.08885        45.65111         0.17542
C         43.87912        46.34408         0.11781
C         45.14997        48.46822         0.30160
C         43.85687        47.78254         0.16737
C         45.16737        49.95587         0.41643
C         43.87700        50.66805         0.32217
C         45.11255        52.74192         0.91799
C         43.88684        52.06897         0.36709
C         45.12661        54.24366         0.82952
C         43.95614        54.96224         0.57070
C         45.04676        57.07368         1.12764
C         43.92644        56.40200         0.69342
C         45.02504        58.54626         1.31706
C         43.81841        59.31430         0.87662
C         45.19471        61.40778         0.69089
C         43.92673        60.74388         0.51621
C         45.23117        62.84103         0.61614
C         44.06396        63.57243         0.26057
C         45.19465        65.71418         0.76523
C         44.03979        64.99528         0.35164
C         45.22570        67.12664         0.84249
C         44.00432        67.82130         0.56898
C         45.20701        70.00767         0.76278
C         43.99107        69.27974         0.60832
C         45.20364        71.42746         0.65395
C         44.00110        72.14470         0.45653
C         45.20933        74.26571         0.58534
C         43.97520        73.56375         0.50927
C         46.17462        33.57297         0.72829
C         47.43931        35.63948         0.29043
C         46.22343        34.90488         0.34000
C         47.47253        37.01415         0.03877
C         46.21145        37.74825        -0.08742
C         47.51218        39.85654        -0.55013
C         46.23248        39.15204        -0.17735
C         47.50749        41.31394        -0.17853
C         46.33551        42.01050        -0.01964
C         47.55117        44.14348         0.19189
C         46.35922        43.46117         0.14453
C         47.60659        45.58388         0.14669
C         46.35863        46.33474         0.07205
C         47.61442        48.45637        -0.26644
C         46.36825        47.72069        -0.03968
C         47.63057        49.97016        -0.20088
C         46.32053        50.74475        -0.17205
C         47.58598        52.77576         0.72025
C         46.40730        52.10988         0.47353
C         47.57845        54.18656         1.11731
C         46.34623        54.89304         1.16935
C         47.57160        57.08112         1.49392
C         46.25621        56.32187         1.66862
C         47.52164        58.48368         0.88990
C         46.35772        59.26256         1.51561
C         47.60296        61.38206         1.16394
C         46.37593        60.71063         1.06732
C         47.62470        62.80756         1.13640
C         46.42145        63.52310         0.97844
C         47.62654        65.70959         1.44098
C         46.31796        64.96716         1.39228
C         47.69269        67.13921         1.30983
C         46.46216        67.82964         1.10829
C         47.70506        70.03821         0.88392
C         46.43588        69.33110         1.30787
C         47.66444        71.41441         0.64339
C         46.44251        72.14726         0.67189
C         47.68018        74.29699         0.52010
C         46.43566        73.58055         0.58564
C         48.69454        37.75072         0.09663
C         49.97183        39.85107         0.06433
C         48.75603        39.12711        -0.09027
C         50.04716        41.23989        -0.01964
C         48.81425        42.05015        -0.36897
C         50.11372        44.12506         0.20082
C         48.82661        43.35942         0.40964
C         50.11102        45.53429         0.24059
C         48.84279        46.23359         0.19478
C         50.09373        48.40284         0.47740
C         48.89488        47.68600        -0.05140
C         50.07374        49.88485         0.62931
C         48.87789        50.66942         0.20297
C         50.05880        52.73921         0.77016
C         48.85189        52.09246         0.60109
C         50.06325        54.16958         0.98100
C         48.83099        54.84842         1.21426
C         49.97959        57.02261         0.61309
C         48.83922        56.32813         1.33952
C         50.00743        58.52664         0.88211
C         48.85292        59.20292         1.05858
C         50.13169        61.40241         1.16229
C         48.87421        60.63990         1.55208
C         50.13399        62.84197         1.47882
C         48.82341        63.51789         1.51570
C         50.50410        65.92938         1.54584
C         48.68518        64.87155         1.85975
C         50.24961        67.25929         1.12089
C         48.95925        67.89584         1.18870
C         50.16872        69.99723         0.62724
C         48.94117        69.29116         0.88170
C         50.15265        71.48067         0.59751
C         48.88399        72.14326         0.13488
C         50.11807        74.34460         0.18902
C         48.89392        73.64304         0.35287
C         51.26152        41.96484         0.10964
C         52.65982        44.05762         0.10546
C         51.30951        43.36893         0.13005
C         52.60853        45.57461         0.17074
C         51.35938        46.26437         0.23159
C         52.57730        48.40408         0.47605
C         51.38759        47.68741         0.37850
C         52.59216        49.83782         0.97152
C         51.34213        50.62243         0.68254
C         52.55595        52.74760         0.68377
C         51.32334        52.00689         0.71833
C         52.50961        54.15147         0.62887
C         51.29545        54.85246         0.83228
C         52.47942        57.02198         0.37170
C         51.30948        56.34729         1.05406
C         52.43783        58.49881         0.31005
C         51.34223        59.23642         1.05761
C         52.49911        61.44188         0.45203
C         51.29705        60.74118         0.80173
C         52.58363        62.86796         0.52173
C         51.47481        63.63611         1.16421
C         52.56105        65.78601         0.34044
C         51.48360        65.11092         0.97170
C         52.58984        67.18189         0.36739
C         51.41479        67.93035         0.64720
C         52.63669        70.05520         0.15548
C         51.39729        69.35023         0.50510
C         52.64884        71.49945         0.07409
C         51.42109        72.24066         0.38290
C         52.57958        74.36211        -0.12913
C         51.36423        73.69252         0.07573
C         53.79674        46.29421         0.18380
C         55.03318        48.45427         0.35130
C         53.83000        47.71936         0.33550
C         55.05883        49.88854         0.43416
C         53.83748        50.60150         0.61276
C         55.03891        52.72489         0.51969
C         53.81820        52.01606         0.59425
C         55.02001        54.21258         0.76806
C         53.77555        54.84689         0.16067
C         54.97355        57.05231         0.19828
C         53.78541        56.34481         0.30761
C         54.98856        58.48757         0.03445
C         53.69713        59.20712        -0.06061
C         54.95726        61.37623        -0.35714
C         53.64853        60.69418        -0.12235
C         54.95991        62.86944        -0.31488
C         53.72043        63.56652         0.09334
C         55.01403        65.74280        -0.26500
C         53.67789        65.01678        -0.30545
C         55.03165        67.11824        -0.25020
C         53.90036        67.91016         0.34613
C         55.02293        70.04168        -0.63112
C         53.79838        69.34785        -0.08116
C         55.06473        71.51173        -0.33119
C         53.82641        72.21147        -0.17011
C         55.05607        74.33594        -0.23172
C         53.82558        73.66672        -0.16951
C         56.26487        50.61856         0.31425
C         57.49193        52.78920         0.31577
C         56.27876        52.03559         0.39305
C         57.51037        54.20977         0.26513
C         56.27578        54.94148         0.34544
C         57.46911        57.06295         0.02803
C         56.24731        56.32697         0.18571
C         57.45647        58.47931        -0.06097
C         56.19671        59.19493        -0.06797
C         57.42811        61.33925        -0.23662
C         56.21828        60.62817        -0.20611
C         57.44082        62.78922        -0.22359
C         56.25708        63.55018        -0.20004
C         57.47701        65.66130        -0.21106
C         56.26108        64.99361        -0.27541
C         57.57269        67.09342        -0.47140
C         56.26343        67.86497        -0.51639
C         57.50306        69.98839        -0.15304
C         56.31050        69.32619        -0.31034
C         57.52635        71.45109        -0.12911
C         56.28028        72.18202        -0.25830
C         57.53042        74.29377        -0.15379
C         56.29457        73.63159        -0.20431
C         58.71269        54.93480         0.08916
C         59.92434        57.08173        -0.13288
C         58.71665        56.34713        -0.00171
C         59.92132        58.48196        -0.21490
C         58.67786        59.20126        -0.17389
C         59.91260        61.33790        -0.35367
C         58.68384        60.62918        -0.23764
C         59.91730        62.77312        -0.33111
C         58.71519        63.45565        -0.19932
C         59.98321        65.65436         0.18971
C         58.70507        64.90866         0.06886
C         59.99555        67.13528         0.08816
C         58.79731        67.84329        -0.14674
C         59.97631        69.94199         0.21203
C         58.77175        69.25688        -0.03572
C         59.93989        71.40730         0.56234
C         58.71233        72.13228         0.07081
C         59.99448        74.22802         0.03529
C         58.75044        73.57529        -0.01746
C         61.13834        59.22603        -0.36589
C         62.44493        61.31633        -0.75085
C         61.14542        60.60360        -0.44189
C         62.46740        62.78105        -0.39071
C         61.19494        63.54561        -0.65310
C         62.42331        65.59889         0.12689
C         61.25006        64.94007        -0.06789
C         62.44156        67.02834         0.64651
C         61.19973        67.81015         0.27870
C         62.46645        69.92326         0.39802
C         61.21383        69.23757         0.31184
C         62.51531        71.41106         0.64430
C         61.23026        72.12866         0.28062
C         62.51226        74.25844         0.33912
C         61.21786        73.50186         0.15631
C         63.63179        63.43917        -0.15937
C         64.86526        65.59677        -0.02140
C         63.68924        64.88906        -0.01338
C         64.87189        67.04875        -0.00853
C         63.69035        67.77069         0.24395
C         64.89277        69.88982        -0.12907
C         63.68170        69.19407         0.20411
C         64.87754        71.33417        -0.28201
C         63.72765        72.07279         0.02971
C         64.82573        74.14315        -0.63358
C         63.71641        73.48397        -0.12805
C         66.05688        67.75801        -0.31443
C         67.36462        69.82184        -0.78935
C         66.06812        69.15246        -0.39536
C         67.25654        71.30890        -1.02091
C         66.04896        72.01402        -0.75824
C         67.17163        74.10081        -1.42522
C         66.01269        73.42830        -0.95183
C         68.37543        72.00095        -1.46955
C         68.33174        73.39519        -1.67776
O         25.21378        69.16060         2.54795
O         52.03770        57.70660        -0.86895
O         44.06277        59.01559         2.34231
O         59.29676        65.20542         1.43065
O         48.48096        56.92375         2.64050
O         49.72624        65.44491         2.59210
O         37.40112        52.28444        -2.34747
O         45.38471        49.19081         1.62531
O         34.77923        71.99323        -1.79226
O         53.39795        59.89145        -1.34213
O         48.43062        47.99981        -1.40214
O         49.84270        49.00254         1.81322
O         56.95028        67.47230        -1.76039
O         32.09904        65.35055        -2.38108
O         48.52791        50.51464        -1.22649
O         54.86880        62.15585        -1.61980
O         50.84225        72.02377         1.75793
O         38.68034        69.86112        -1.64632
O         42.79512        54.58000        -1.55394
O         51.13265        63.19850         2.49172
O         40.67784        62.81760        -2.47255
H         41.63005        62.56268        -2.59334
O         38.28151        61.42489        -2.94282
H         39.13998        61.90168        -3.07063
O         40.48948        54.07968        -2.56557
H         41.43459        53.88884        -2.76891
O         47.57775        39.83556        -2.03559
H         46.71453        40.16836        -2.36428
O         51.47114        56.55142         2.47448
H         50.60564        56.42375         2.91847
O         49.66636        56.78371        -0.78142
H         50.41419        57.16585        -1.30872
O         62.64049        71.58989         2.11253
H         62.78767        72.56057         2.25403
O         30.13753        67.47849        -2.37503
H         29.20532        67.24469        -2.61413
O         54.89979        69.94543        -2.10462
H         55.22323        69.05869        -2.37746
O         51.70074        59.17002         2.46577
H         50.97509        59.60679         2.97058
O         43.35923        62.73656        -1.87771
H         43.70752        63.61576        -2.14175
O         40.13580        49.81098        -1.87921
H         40.93245        49.33453        -2.19366
O         48.88266        71.95015        -1.31979
H         48.04942        72.33089        -1.66990
O         38.79229        71.90157         2.08583
H         38.09763        72.53071         2.37732
O         44.77210        43.95813         1.83430
H         45.49698        44.36692         2.35144
O         31.87102        67.34056         0.87392
H         32.67150        67.80490         1.20093
O         40.11600        45.31471         1.89874
H         39.97488        46.16549         2.37214
O         41.87021        56.71735         1.80025
H         42.32862        57.17034         2.54082
O         30.07192        70.19022        -2.04442
H         30.13310        69.29775        -2.47614
O         34.12006        56.48524        -3.21924
H         33.24153        56.10300        -3.46298
O         41.28384        68.76492         1.94737
H         41.18242        69.57022         2.49757
O         27.03160        60.58656         0.28898
H         26.99297        60.55914        -0.68879
O         41.85858        68.37313        -1.62964
H         41.79516        67.60602        -2.23669
O         61.14826        63.72327        -2.11318
H         61.56739        62.92240        -2.51071
O         42.23202        57.06734        -1.81881
H         42.78419        56.35032        -2.21238
O         39.72431        58.46951         1.41249
H         39.73483        59.37744         1.78295
O         62.62635        61.25970        -2.19172
H         62.42114        60.34780        -2.48722
O         53.38872        43.64223        -1.06428
H         52.85824        43.88071        -1.85221
O         44.15192        43.74290        -1.75411
H         43.36281        43.45506        -2.25892
O         29.32648        67.26433         1.25019
H         30.25179        67.46065         1.53288
O         40.07165        44.66524        -1.71304
H         39.90117        43.84801        -2.22625
O         28.39729        70.94542         2.37238
H         27.67047        70.40493         2.75271
O         54.91428        54.38307         2.21327
H         55.68720        53.94655         2.62864
O         39.03617        50.88931         1.45188
H         38.99565        49.98187         1.84322
O         27.51581        67.13218        -1.89958
H         26.64690        66.67482        -2.03725
O         35.58938        62.97191        -3.13911
H         35.66812        63.91866        -3.38229
O         46.58945        59.25460         2.95182
H         45.71075        59.40529         3.37379
O         54.29715        68.01133         1.77731
H         53.58275        68.49405         2.24719
O         38.78586        48.01506         1.98830
H         37.93520        47.56897         2.23019
O         45.93505        50.96773        -1.55834
H         46.76525        51.16840        -2.04942
O         25.17276        65.54198        -1.47260
H         25.19831        64.62466        -1.81649
O         42.77273        71.31774        -1.40502
H         42.27319        70.50517        -1.66039
O         46.01215        56.21689         3.10831
H         46.87718        56.38812         3.55082
O         36.17666        46.54610         1.78485
H         35.35428        47.05479         1.94452
O         59.83487        71.42844         2.04083
H         60.75040        71.27907         2.38950
O         47.24410        58.32887        -0.51754
H         48.00020        57.82454        -0.91225
O         48.89801        42.34893        -1.78783
H         48.70783        41.50458        -2.26203
O         48.81545        42.98068         1.82407
H         48.90167        43.79904         2.35626
O         52.60364        49.69675         2.44748
H         51.71470        49.34269         2.69033
O         53.33021        64.95807        -1.73783
H         53.87326        64.24790        -2.14797
O         44.96219        35.33133        -1.62381
H         45.80481        35.69416        -1.97159
O         48.94551        60.55550         3.00955
H         48.12176        60.08644         3.30697
O         62.67357        74.45666         1.76935
H         61.84450        74.85258         2.11120
O         62.44954        66.94332         2.11019
H         61.61259        66.50889         2.38298
O         53.84860        54.59768        -1.27705
H         53.17243        55.15407        -1.71871
O         68.36577        69.56117         0.21609
H         68.06345        69.96586         1.05505
O         31.54024        55.09807        -3.07072
H         31.62807        54.18291        -3.41003
O         46.34721        69.51191         2.78661
H         47.23645        69.32027         3.15534
O         45.91770        64.87644         2.83741
H         45.75272        65.79487         3.14411
O         45.03755        52.46056         2.36580
H         45.67567        53.05376         2.81813
H         23.05001        75.03631         1.42447
H         25.50396        75.08812         1.19334
H         27.96984        75.14474         1.00194
H         30.42365        75.22846         0.70023
H         32.85791        75.27444         0.54260
H         35.30253        75.33032         0.38839
H         37.77343        75.37616         0.34429
H         40.25974        75.35528         0.45526
H         42.71236        75.34290         0.52154
H         45.20342        75.36573         0.58397
H         47.65677        75.39629         0.57412
H         50.09015        75.44519         0.15699
H         52.57998        75.45695        -0.24386
H         55.07203        75.43644        -0.24136
H         57.55842        75.39382        -0.17173
H         60.03346        75.32584        -0.03523
H         62.46673        75.26428        -0.16425
H         64.80530        75.23595        -0.76025
H         67.13524        75.18930        -1.57600
H         22.14276        69.16200         1.28287
H         20.94076        71.26627         1.58705
H         20.92567        73.75151         1.60959
H         24.62766        64.91319         0.46026
H         23.37715        66.97711         0.88986
H         28.27011        61.22978         1.79376
H         25.99640        62.82449         0.64545
H         29.64708        56.58720        -0.59318
H         28.53843        58.65843         0.22729
H         31.95282        52.39320        -1.10265
H         30.79406        54.51858        -1.18872
H         34.31838        48.07582        -0.44266
H         33.14435        50.23285        -0.89974
H         36.68857        43.76661         0.18807
H         35.52125        45.94931        -0.12519
H         39.14111        39.44348         0.04299
H         37.93785        41.56594         0.10280
H         41.56749        35.15172         0.60461
H         40.34831        37.27584         0.21414
H         44.94204        31.83450         1.16791
H         42.78605        33.01828         0.90918
H         47.10521        33.04794         0.99119
H         48.38112        35.11587         0.51883
H         49.61754        37.20387         0.34656
H         50.88258        39.28276         0.31509
H         52.20899        41.40610         0.16515
H         53.25954        43.69145         0.98419
H         54.75011        45.75037         0.10512
H         55.98713        47.91891         0.23098
H         57.21319        50.07773         0.17856
H         58.44451        52.24570         0.22631
H         59.66690        54.39028         0.02864
H         60.88167        56.54020        -0.16408
H         62.08855        58.67228        -0.42865
H         63.30454        60.77753        -0.25858
H         64.57858        62.87813        -0.10382
H         65.82582        65.07211        -0.13450
H         66.98212        67.20036        -0.52063
H         67.74377        69.33576        -1.72876
H         69.30853        71.45160        -1.65834
H         69.22936        73.91741        -2.03719
