         260
 CSIRO Nanostructure Databank - Neutral Graphene Oxide Data Set
C         30.68568        31.61833         2.00773
C         30.66269        32.86205         1.89533
C         30.63464        36.08893         1.69827
C         30.66054        37.32038         1.65387
C         30.70071        40.66797         1.58608
C         30.61257        41.88772         1.39341
C         32.96436        28.83386         1.02483
C         31.90974        29.36974         1.55355
C         32.82783        31.53892         0.91463
C         31.67604        30.72220         1.52189
C         32.83987        33.03493         1.02250
C         31.70942        33.72425         1.41731
C         32.77743        35.92143         0.51991
C         31.55890        35.14579         1.06667
C         32.76556        37.43413         0.43383
C         31.75013        38.23071         1.29126
C         32.67597        40.34941         0.20423
C         31.76436        39.71326         1.27936
C         32.74351        41.91609         0.19867
C         31.84127        42.74775         1.23058
C         32.83529        44.64306         0.15442
C         31.83939        44.13194         0.67446
C         35.43490        27.17396        -0.24191
C         35.18769        28.64672        -0.34610
C         34.16916        29.27732         0.58366
C         35.37983        31.53642         0.40880
C         34.08141        30.78935         0.49810
C         35.37403        33.05049         0.45080
C         34.08484        33.79734         0.68438
C         35.13518        35.89206        -0.46629
C         34.06009        35.24045         0.40729
C         35.23998        37.41958        -0.37353
C         33.98035        38.16973        -0.06619
C         35.13709        40.39856        -0.59204
C         34.08994        39.68234         0.23292
C         35.17882        41.80440        -0.62700
C         33.92439        42.61512        -0.45155
C         35.32432        44.88434        -0.42470
C         33.97571        44.17466        -0.69514
C         35.42642        45.73031         0.87896
C         37.86824        26.94481        -0.18175
C         36.47632        26.53236        -0.37660
C         37.88333        28.49358        -0.20570
C         36.59656        29.28261        -0.14070
C         37.51741        31.63534        -0.91635
C         36.56703        30.81046        -0.15082
C         37.70708        32.96374        -0.68428
C         36.62602        33.77070        -0.03743
C         37.62818        35.85626        -1.20037
C         36.50988        35.22553        -0.40095
C         37.56187        37.39092        -1.42981
C         36.31792        38.08440        -0.86085
C         37.61863        40.17905        -0.58111
C         36.31464        39.59423        -1.10367
C         37.64219        41.64004        -0.25157
C         36.43876        42.49278        -0.49890
C         37.73416        44.48163         0.19157
C         36.53485        43.88543        -0.20768
C         37.82261        45.97945         0.57328
C         36.50802        46.18998         1.28735
C         40.52638        24.47545        -1.30443
C         39.46065        24.92826        -0.87913
C         40.37325        27.21304        -0.62428
C         39.17121        26.24548        -0.30374
C         40.39492        28.51883         0.14535
C         39.25008        29.03878        -0.65838
C         40.30468        31.35218        -0.51491
C         39.37732        30.48710        -1.01552
C         40.32331        32.81893        -0.85075
C         38.99655        33.59714        -1.05675
C         40.25650        35.83281        -1.34940
C         38.93645        35.09419        -1.26686
C         40.15898        37.34223        -1.28959
C         38.87697        38.09673        -1.06586
C         40.09636        40.32108        -1.21157
C         38.89737        39.44290        -0.84526
C         40.27003        41.59979        -0.39355
C         38.98826        42.30970        -0.09142
C         40.32601        44.48315         0.16971
C         38.99852        43.79891        -0.07673
C         40.31522        45.69973         1.01048
C         39.10262        46.32457         1.29412
C         40.33999        48.03919         2.44337
C         39.25495        47.40855         2.21118
C         43.13743        24.50379        -0.95987
C         41.85149        25.08017        -1.37350
C         42.87401        27.13834        -0.07685
C         41.72668        26.56786        -0.87960
C         42.76977        28.54805         0.49584
C         41.49676        29.29137         0.32554
C         42.71466        31.54747         0.24934
C         41.37641        30.82185         0.41569
C         42.71968        32.98463        -0.10850
C         41.56564        33.61047        -0.56492
C         42.59309        35.92545        -0.17882
C         41.64425        35.07923        -1.07727
C         42.57519        37.43390        -0.33001
C         41.36371        38.12182        -0.85881
C         42.69783        40.29753        -1.26425
C         41.40976        39.55142        -1.32496
C         42.74941        41.73752        -0.92541
C         41.54880        42.38871        -0.50956
C         42.79440        44.51066        -0.05407
C         41.56962        43.69004        -0.00069
C         42.84219        45.77617         0.77284
C         41.63678        46.10033         1.67812
C         42.92154        48.16719         2.06844
C         41.62505        47.64479         2.14801
C         44.09465        25.17437        -0.53464
C         45.33009        27.28989         0.26486
C         44.24665        26.53086        -0.11588
C         45.23667        28.75852         0.26418
C         44.00027        29.35091         0.51951
C         45.58761        31.81184        -0.03376
C         43.81317        30.78981         0.65049
C         45.38196        33.27043        -0.08582
C         43.99561        33.82231        -0.08925
C         45.13602        36.11955         0.52126
C         43.84970        35.27919         0.33890
C         45.16018        37.56478         0.08080
C         43.87961        38.20458        -0.34283
C         45.25777        40.22774        -1.11095
C         43.95954        39.49549        -1.10838
C         45.23796        41.70407        -0.96752
C         44.03239        42.38725        -0.83825
C         45.35832        44.56941        -0.43118
C         44.04864        43.86494        -0.59056
C         45.43103        45.84084         0.41719
C         44.21765        46.38757         1.08338
C         44.00503        47.75875         1.58806
C         47.65086        27.63229         0.93545
C         46.68550        26.92130         0.58782
C         47.88366        28.96909         0.32826
C         46.50073        29.50651        -0.13082
C         47.74931        31.83230         1.60556
C         46.35324        30.89885        -0.67043
C         47.72724        33.20375         0.87976
C         46.36071        33.92095         0.91264
C         47.77717        35.94697         0.13212
C         46.45386        35.42549         0.70124
C         47.71704        37.45217        -0.12004
C         46.47128        38.20147        -0.27712
C         47.75984        40.16734        -1.20814
C         46.50633        39.48618        -0.77429
C         47.69575        41.67799        -1.46132
C         46.59085        42.30928        -0.59971
C         47.83056        44.49226        -0.79515
C         46.63302        43.81505        -0.64467
C         47.65553        45.88921        -0.44413
C         46.71949        46.49257         0.09515
C         50.42405        29.45379         0.54367
C         49.07353        29.81825         0.65164
C         50.16732        31.88731         1.56645
C         49.02693        31.12384         1.21764
C         49.87538        33.25525         2.22569
C         48.85931        34.05664         1.40118
C         50.20452        36.08753         1.29047
C         48.96893        35.36106         0.99258
C         50.64280        37.10057         0.42482
C         48.85975        38.04237        -0.56097
C         50.31320        40.16307        -0.53051
C         49.05087        39.44175        -0.97368
C         50.43779        41.58996        -1.06911
C         49.08460        42.35561        -1.34558
C         50.34917        44.31873        -1.12705
C         49.06412        43.83038        -1.12199
C         51.49565        30.05793         0.86695
C         52.47264        32.21966         2.02785
C         51.48668        31.32615         1.47361
C         52.28791        33.26136         2.68902
C         51.10910        34.11599         2.65043
C         52.35755        36.45209         2.33933
C         51.14470        35.61849         2.35077
C         52.41661        37.56037         1.75478
C         51.65561        38.07147         0.67009
C         52.65441        40.39534         0.18382
C         51.50142        39.48925         0.24825
C         52.65193        41.59782        -0.12164
C         51.66225        42.41713        -0.73064
C         51.49347        43.76533        -0.95657
O         42.53427        45.84808        -0.62992
O         44.61171        44.66651        -1.68355
O         39.76496        41.66117         0.96985
O         42.57860        27.38063         1.34636
O         44.39122        38.40063         1.01568
O         49.97508        37.23599        -0.79496
O         40.31533        36.64807        -2.55942
O         41.59809        38.04769         0.57948
O         39.75777        33.05895        -2.17657
O         39.74559        28.06042        -1.73152
O         44.72028        39.56884        -2.34527
O         37.32825        28.90874         1.06316
O         46.98856        31.39254         2.42788
O         42.00094        26.18619        -2.26423
O         47.43543        28.83166        -1.05035
O         32.71265        42.26113        -1.19770
O         49.95168        41.84964        -2.40320
O         37.01384        34.82578         0.90056
O         42.07899        39.86818        -2.56877
O         44.96250        31.36978         1.16613
O         36.24852        39.75508        -2.58311
O         38.33428        30.95467        -1.83846
O         31.68990        35.34487        -0.35342
O         50.71016        35.08111         3.62524
O         48.51605        39.56481        -2.33009
O         33.10647        31.20536        -0.51224
O         36.46682        31.16642         1.28391
O         32.37086        38.98261         2.36028
O         32.89458        37.79967        -0.97247
O         38.57447        26.41439         0.97824
O         45.84402        36.10799         1.82110
O         35.61617        45.66884        -1.47634
O         50.38537        40.15711         0.93342
O         45.14893        45.56411         1.81840
O         37.42593        40.61747         0.80384
O         38.03751        35.21893        -2.43562
O         35.06831        33.47144         1.80730
O         42.72001        35.51828         1.21304
O         44.88621        33.86620        -1.29513
O         39.67676        44.51889        -1.16198
O         45.79538        33.67162         2.20254
H         45.51721        34.53646         2.59169
O         37.83909        46.72006        -0.62347
H         36.97576        46.52938        -1.10921
O         33.68882        44.32881        -2.06491
H         34.24870        45.09281        -2.37042
O         34.80884        29.00389        -1.67212
H         33.86296        28.78981        -1.81474
O         46.89061        41.89523         0.76591
H         46.28456        42.35187         1.38714
O         47.87969        35.37737        -1.20064
H         48.66726        35.77677        -1.63446
O         40.93002        31.15168         1.75781
H         41.59741        30.83771         2.40384
O         49.20565        32.92340         3.45854
H         49.17469        33.72939         4.02065
O         34.64369        35.62747        -1.80919
H         33.83939        36.18455        -1.94829
O         32.54464        42.74709         2.44736
H         32.07136        43.30256         3.09992
O         42.31476        35.04318        -2.34362
H         41.73553        34.58911        -2.99258
O         37.47488        37.59560        -2.85134
H         37.99429        36.87302        -3.28187
O         39.73502        40.80884        -2.52552
H         40.49111        40.61765        -3.13377
O         48.12147        32.86297        -0.46543
H         48.02962        33.66523        -1.04149
O         31.99214        39.98587        -0.99232
H         32.14937        40.68409        -1.67331
O         34.62498        39.82529         1.57269
H         35.59201        40.02275         1.53338
O         36.65081        41.11844        -2.86463
H         36.26924        41.25835        -3.76598
O         47.28463        41.87183        -2.81614
H         47.91048        41.37634        -3.39015
O         41.81194        45.33153         2.87255
H         41.06662        45.50624         3.48538
O         46.94361        31.14654        -1.87025
H         47.44296        30.33538        -2.12653
