         260
 CSIRO Nanostructure Databank - Neutral Graphene Oxide Data Set
C         30.22995        31.86080         0.78608
C         30.20543        33.05257         1.14059
C         30.27061        36.12123         1.16581
C         30.24209        37.22388         0.61047
C         30.32977        40.04913        -1.00908
C         30.32572        41.20247        -1.54354
C         32.57073        29.02613        -0.04499
C         31.51837        29.68566         0.04327
C         32.58275        31.66037         0.82029
C         31.37219        31.05409         0.46823
C         32.63779        33.02177         1.41073
C         31.32656        33.81916         1.67900
C         32.69003        36.01452         1.32634
C         31.37193        35.30912         1.68415
C         32.63746        37.48596         0.79350
C         31.40850        37.79032        -0.15269
C         32.62645        39.82498        -0.97348
C         31.39303        39.23500        -0.57967
C         32.60964        40.96819        -1.79480
C         31.49078        41.82089        -2.04291
C         33.03448        43.73117        -2.50314
C         31.95308        43.12360        -2.45577
C         35.26906        27.36786         0.08751
C         35.07624        28.72196         0.36929
C         33.78556        29.36095         0.79682
C         35.16665        31.47939         1.16707
C         33.89188        30.94189         0.48355
C         35.17737        33.01548         1.32485
C         33.90111        33.79761         1.24447
C         35.19103        35.93449         1.13968
C         33.91685        35.16596         1.15557
C         35.15695        37.39765         0.68107
C         33.92681        37.94329         0.11774
C         35.19308        40.19156        -0.29967
C         33.91493        39.36196        -0.35143
C         35.40798        41.60140        -0.81017
C         34.57947        42.15274        -1.73280
C         35.32323        44.44847        -1.50198
C         34.37765        43.57631        -1.98943
C         35.56931        45.82816        -1.75528
C         37.44158        27.33549        -0.75506
C         36.26839        26.68985        -0.28814
C         37.30253        28.74541        -0.63177
C         36.26697        29.45051         0.06570
C         37.64410        31.51543         0.65443
C         36.43163        30.86476         0.49944
C         37.70858        32.99703         0.83427
C         36.47745        33.74913         1.24429
C         37.68314        35.91017         1.07917
C         36.49838        35.23097         1.08626
C         37.69408        37.39954         0.97856
C         36.47546        38.03014         0.35437
C         37.70009        40.28405         0.27941
C         36.49144        39.45822        -0.09091
C         37.70270        41.79214         0.29550
C         36.44628        42.48248        -0.19541
C         37.77774        44.72224        -0.57645
C         36.46040        43.93255        -0.63274
C         37.91938        45.98228        -1.44838
C         36.56598        46.56388        -1.65576
C         40.02072        24.57925        -0.92474
C         38.98237        25.24207        -1.03162
C         40.06884        27.31969        -0.49032
C         38.73705        26.68723        -1.06149
C         39.94218        28.55603         0.27689
C         39.14514        29.60805        -0.03537
C         40.35542        31.56008         1.03078
C         38.98799        30.84881         0.70990
C         40.32858        33.03087         1.00442
C         39.01794        33.73156         0.96868
C         40.27905        35.94981         1.23217
C         38.97781        35.19828         1.30946
C         40.25689        37.33606         0.59764
C         38.99131        38.14036         0.85973
C         40.26946        40.26747         0.13213
C         38.98988        39.51993         0.24288
C         40.25180        41.75922        -0.07513
C         39.05210        42.57703         0.43425
C         40.41629        44.63406        -0.39916
C         39.03901        44.03488        -0.11918
C         40.54461        46.02071        -1.00815
C         39.24701        46.63007        -1.63442
C         40.69976        48.43107        -2.35841
C         39.56885        47.98419        -2.10947
C         42.63413        24.55593        -0.72412
C         41.29851        24.98338        -0.32312
C         42.69625        27.26492        -0.16892
C         41.32952        26.52737        -0.14689
C         42.96512        28.71169         0.29148
C         41.82098        29.48743         0.85734
C         42.86478        31.62079         0.43956
C         41.64145        30.83926         0.73953
C         42.73388        33.10440         0.31246
C         41.50211        33.77574         0.82472
C         42.76685        35.92720         1.02990
C         41.51855        35.18292         0.94063
C         42.77232        37.46710         0.95195
C         41.52240        38.14833         0.71135
C         42.78623        40.37414         0.64860
C         41.46189        39.65238         0.85035
C         42.82594        41.67514         0.26338
C         41.58504        42.43717        -0.08997
C         42.67249        44.48550         0.71751
C         41.56516        43.88577         0.22714
C         42.84738        46.58407        -0.02246
C         41.77445        46.92106        -0.88154
C         43.29083        48.46276        -1.83618
C         41.95787        48.02768        -1.78395
C         43.67623        25.18618        -0.92704
C         45.00085        27.43231        -1.41260
C         43.77679        26.65681        -1.08304
C         45.12196        28.90214        -1.06484
C         44.10941        29.48455        -0.28475
C         45.06036        31.87058        -0.87478
C         44.12925        30.94427        -0.04519
C         45.30148        33.16424        -0.08937
C         44.00661        33.87171         0.18781
C         45.28317        35.97183         0.38054
C         44.08620        35.17263         0.95797
C         45.33707        37.43868         0.76888
C         44.03850        38.21112         0.53698
C         45.32615        40.34282         1.00586
C         43.99444        39.61767         1.18915
C         45.40942        41.69533         0.30108
C         44.10020        42.46081         0.23303
C         45.26141        44.77195         0.88904
C         44.04560        43.94010         0.52637
C         45.29092        46.29956         0.57875
C         44.20196        46.98292        -0.17179
C         44.25386        47.95823        -1.18065
C         47.48688        27.13932        -1.75441
C         46.29202        26.82190        -1.68976
C         48.04417        28.36581        -2.24083
C         46.19057        29.69078        -1.60247
C         47.73855        31.90552        -1.26702
C         46.37380        31.13584        -1.34735
C         47.74762        33.33003        -0.67477
C         46.49356        33.78262         0.07352
C         47.81317        35.94714         0.24736
C         46.57905        35.18593         0.71260
C         47.82216        37.42090         0.48347
C         46.53273        38.08757         0.82141
C         47.84682        40.27693         0.37598
C         46.59673        39.56255         0.93574
C         47.86146        41.69392         0.97305
C         46.55795        42.46684         0.95678
C         47.91447        44.62471         1.06788
C         46.55243        43.96438         1.13357
C         47.68183        46.02596         0.86242
C         46.71152        46.68429         0.45836
C         50.53786        28.85924        -1.63841
C         49.21072        29.04415        -2.14666
C         50.30905        31.81980        -1.08117
C         49.11902        31.33398        -1.53482
C         50.30079        32.83826         0.05820
C         49.03422        33.70539         0.08882
C         50.36441        35.96722         0.21893
C         49.09271        35.17027         0.40012
C         50.33430        37.30245         1.05074
C         49.10701        38.14896         0.71802
C         50.38733        40.28798         0.73676
C         49.13475        39.51862         0.72577
C         50.40574        41.67191         0.64428
C         49.16891        42.42280         1.03815
C         50.43100        44.40239         0.85283
C         49.09276        43.92832         1.03837
C         51.40887        29.65661        -1.27481
C         52.76412        31.78458        -0.74544
C         51.69388        31.11669        -1.53256
C         52.66393        32.85431        -0.13749
C         51.57879        33.72793         0.17415
C         52.70793        35.94952         0.67594
C         51.60293        35.06548         0.43188
C         52.71964        37.19369         0.76940
C         51.62906        38.11920         0.86189
C         52.74750        40.37324         0.60819
C         51.63341        39.48071         0.74223
C         52.86316        41.60960         0.60559
C         51.69186        42.46270         0.16988
C         51.53946        43.86194         0.72433
O         47.85563        40.32022        -1.01207
O         38.26803        44.90962         0.77523
O         43.92890        27.17233        -2.39950
O         35.94037        33.35670         2.54959
O         39.72282        39.56314        -1.02609
O         32.16344        35.92066         2.69978
O         48.93605        34.19523         1.46089
O         39.68428        27.38583        -1.89227
O         44.14330        43.43201        -0.86441
O         36.70088        38.38164        -1.05240
O         49.11556        30.40308        -2.59460
O         46.96194        31.82777        -2.47859
O         46.15499        40.18025         2.19425
O         38.34546        33.58081        -0.35616
O         41.18661        25.58615         0.96472
O         46.29708        43.06008         2.25564
O         33.79276        41.27003        -2.47556
O         44.99460        45.78627         1.89289
O         38.33657        29.52398        -1.18711
O         39.66782        35.65118         2.51503
O         47.70432        36.81061        -0.89600
O         35.11498        37.03676         2.10839
O         43.98568        31.30604         1.36292
O         34.30172        40.20033         0.85118
O         43.10863        33.76504        -0.94378
O         40.80414        44.81415        -1.79583
O         42.80405        36.77457         2.25180
O         46.94399        29.21371        -2.66373
O         38.31334        38.06855         2.12925
O         40.86312        42.12149        -1.33321
O         44.39240        32.19655        -2.03259
O         42.55179        45.81908         1.11210
O         39.53872        30.90850         2.04926
O         48.55574        41.80720         2.23283
O         40.80187        28.67320         1.39450
O         43.30261        27.53373         1.11393
O         37.46155        41.01938         1.51019
O         38.67594        45.74911        -2.64499
O         32.01902        33.16320         2.74236
O         35.97482        43.54137         0.68993
O         40.21325        36.97512        -0.82712
H         40.17452        37.81579        -1.35097
O         45.75664        41.39266        -1.05856
H         45.53391        42.16377        -1.62614
O         50.27031        32.03207         1.25459
H         50.06343        32.63443         2.00584
O         43.77002        39.44479         2.60319
H         44.64050        39.58404         3.05451
O         41.12818        39.81278         2.26308
H         41.93107        39.56786         2.79018
O         34.12709        31.09269        -0.92627
H         33.39858        30.64753        -1.41285
O         45.10805        35.96190        -1.05889
H         45.97451        36.24503        -1.45223
O         51.89063        31.28287        -2.90332
H         51.11442        30.92106        -3.38352
O         50.39553        36.31696        -1.17192
H         51.20612        36.83990        -1.34844
O         35.20683        30.93924         2.50600
H         35.67330        31.59887         3.07642
O         33.45437        29.06213         2.12780
H         34.15420        29.42133         2.72057
O         32.45734        38.35565         1.91398
H         33.16523        38.16884         2.56967
O         50.23562        36.90120         2.42909
H         50.28384        37.69499         3.00115
O         43.94044        38.42564        -0.88421
H         44.21795        37.58971        -1.33813
O         39.32107        42.71126         1.83558
H         38.57612        43.20300         2.24590
O         46.76529        35.12379         2.13085
H         46.05144        34.56867         2.52550
O         47.78493        34.19573        -1.83850
H         47.13055        33.84928        -2.48918
O         44.30263        34.73381         2.32118
H         44.00645        35.46127         2.91818
O         31.59178        37.01466        -1.33850
H         30.86498        37.21138        -1.96608
O         51.65084        42.52124        -1.22866
H         52.44592        42.98597        -1.56040
