         280
 CSIRO Nanostructure Databank - Neutral Graphene Oxide Data Set
C         30.60777        31.92074        -0.32207
C         30.52216        33.03501         0.38998
C         30.53056        35.78832         1.79827
C         30.51967        37.01535         1.87868
C         30.47399        40.24287         2.24466
C         30.36484        41.47075         2.31585
C         33.03400        29.49346        -1.94045
C         31.96548        29.99575        -1.53095
C         33.03721        32.20285        -0.83530
C         31.49913        31.09899        -0.82443
C         32.94528        33.11877         0.35717
C         31.62861        33.76124         0.72871
C         32.91329        35.80927         1.43534
C         31.71715        34.87070         1.74859
C         32.83454        37.26956         1.33380
C         31.45008        38.01399         1.26953
C         32.87957        40.16070         1.86611
C         31.58878        39.33199         2.00642
C         32.82818        41.66391         2.02111
C         31.48005        42.41785         2.30486
C         32.52083        44.28012         1.08797
C         31.57242        43.71808         1.64771
C         35.90256        28.66000        -3.22829
C         35.60054        29.52773        -2.06830
C         34.31165        30.30768        -2.05675
C         35.56531        32.24514        -0.89680
C         34.29127        31.30794        -0.85166
C         35.51346        33.36702         0.12450
C         34.23249        33.81006         0.72987
C         35.38268        35.94923         1.46451
C         34.12373        35.20964         1.20143
C         35.30926        37.45700         1.69420
C         33.97531        38.01636         1.20950
C         35.22452        40.06098         0.43930
C         33.83832        39.48133         0.82155
C         35.20017        42.04798         1.77520
C         33.95122        42.42049         1.38192
C         34.95100        44.51715         0.31079
C         33.72793        43.63330         0.43747
C         35.10014        45.52015        -0.58498
C         38.30199        28.23291        -2.71109
C         37.03004        28.23897        -3.51123
C         38.24197        29.72693        -2.06522
C         36.88455        30.10497        -1.46079
C         38.04282        32.07226        -0.40978
C         36.85735        31.44894        -0.83592
C         37.97220        33.37346         0.18577
C         36.70549        33.97721         0.47637
C         37.94055        36.08052         1.23962
C         36.69073        35.26662         1.23619
C         37.84694        37.54417         1.32901
C         36.58011        38.19126         1.25824
C         37.70745        40.38387         1.01759
C         36.52693        39.58437         1.02053
C         37.62559        41.88445         0.67820
C         36.44273        42.68615         1.26904
C         37.60665        44.84962         0.23110
C         36.33410        44.09756         0.77851
C         37.40380        45.53773        -1.13167
C         36.11921        45.94775        -1.27338
C         41.00340        26.01387        -3.87622
C         39.90705        26.57877        -3.79630
C         40.89760        28.51606        -2.70966
C         39.58880        28.00807        -3.49984
C         40.73339        29.63344        -1.71594
C         39.38269        29.83619        -1.00967
C         40.56377        31.78727         0.40652
C         39.18989        31.13383        -0.02039
C         40.46073        33.30360         0.61431
C         39.13204        33.88601         1.03217
C         40.41379        36.16325         1.24838
C         39.12968        35.41298         1.16438
C         40.36113        37.67761         1.43379
C         39.02163        38.33330         1.38150
C         40.22254        40.51837         1.26313
C         38.96763        39.75234         1.25589
C         40.14359        41.88308         0.61538
C         38.89422        42.67597         1.01799
C         40.03264        44.50927        -0.37587
C         38.87097        44.01161         0.25795
C         39.91358        45.71114        -1.32523
C         38.54611        45.56429        -2.10260
C         39.62867        47.04235        -3.72439
C         38.61320        46.68514        -3.11070
C         43.45383        25.73274        -3.05243
C         42.22807        26.39205        -3.22363
C         43.22442        28.15070        -1.76780
C         42.15658        27.68997        -2.59943
C         43.10231        29.39318        -1.00643
C         41.91854        30.06820        -0.94735
C         43.02676        32.04244         0.16446
C         41.78042        31.49824        -0.49769
C         42.91956        33.30325         0.73424
C         41.63010        33.98549         0.86203
C         42.70098        35.67918         2.22988
C         41.61307        35.30299         1.48384
C         42.67162        38.01336         2.43977
C         41.50377        38.54359         1.90500
C         42.70362        40.83523         1.87810
C         41.44562        39.95449         1.60186
C         42.65553        42.01712         0.91525
C         41.35491        42.77850         0.84961
C         42.42945        44.21395        -1.02681
C         41.28194        43.91851        -0.14287
C         42.49123        45.55807        -1.70702
C         41.12578        45.94570        -2.26133
C         42.26273        47.06629        -4.02528
C         41.00177        46.76500        -3.37738
C         44.38988        26.21328        -2.35034
C         45.57172        27.91380        -0.86951
C         44.44891        27.40648        -1.62563
C         45.54521        29.16252        -0.28898
C         44.19355        29.79682        -0.03330
C         45.42355        31.85946         0.68413
C         44.26888        31.29229         0.20985
C         45.43497        33.31740         1.05721
C         44.07424        33.89881         1.32615
C         45.19012        35.59250         2.70131
C         43.96607        34.99159         2.16868
C         45.15024        37.88389         2.44445
C         43.96794        38.60800         2.24673
C         45.43315        40.40725         1.31625
C         44.05089        40.03892         1.85638
C         45.70160        41.69460         0.66951
C         43.73380        42.69391         0.45244
C         45.00634        43.64378        -1.65046
C         43.71593        43.45833        -0.80834
C         44.88557        44.95862        -2.47714
C         43.71806        45.64639        -2.66371
C         43.36053        46.59551        -3.66905
C         47.85017        27.66420        -0.04018
C         46.87565        27.29237        -0.71499
C         48.16113        29.12301         0.22779
C         46.70257        29.69511         0.55314
C         47.84835        31.65379         1.60055
C         46.80081        31.22303         0.53638
C         47.49825        32.72543         2.39801
C         46.26490        33.53854         2.30690
C         47.68214        35.95258         2.68407
C         46.42557        35.05454         2.53817
C         47.51058        37.21474         1.70940
C         46.41673        38.07528         1.74446
C         47.37789        39.61695        -0.18397
C         46.34880        39.29632         0.86681
C         47.56115        41.00850        -0.72789
C         46.55896        41.99563        -0.33319
C         47.63799        43.74256        -1.79403
C         46.41386        43.32797        -1.02168
C         47.26445        44.57441        -2.95625
C         46.17242        45.15963        -3.06913
C         50.55066        29.11979         1.03316
C         49.11742        29.45970         1.37704
C         50.32019        31.69421         2.17874
C         49.12122        30.99074         1.73750
C         50.36642        33.06032         2.59373
C         49.18532        33.84584         2.88723
C         50.06299        35.57294         1.50766
C         48.97282        35.14465         2.45394
C         50.02274        37.00058         1.00119
C         48.71283        37.71409         0.92998
C         49.65928        38.98171        -1.22444
C         48.54942        38.66946        -0.24771
C         49.51190        40.26742        -2.12722
C         48.63460        41.36694        -1.48751
C         49.72991        43.01448        -3.01832
C         48.89856        42.89325        -1.72723
C         51.54307        29.67083         1.56273
C         52.72078        31.85985         2.22781
C         51.62828        31.00816         1.99793
C         52.82862        33.06587         2.52531
C         51.61983        33.91200         2.90180
C         52.38930        35.96162         1.47607
C         51.50963        35.17593         2.09218
C         52.36911        36.86416         0.51835
C         51.17707        37.37825         0.08982
C         52.13442        39.30686        -1.21806
C         51.03670        38.23725        -1.12715
C         51.96422        40.21466        -2.07782
C         50.87250        40.90669        -2.58299
C         50.65053        42.14983        -3.13989
O         42.60621        36.78112         3.08805
O         45.05054        36.83333         3.33389
O         32.58200        39.37254         3.04593
O         36.63109        43.83882         2.18364
O         42.69690        42.98913        -1.77288
O         35.27210        40.66880        -0.63917
O         38.59622        30.66561         1.17303
O         49.74287        38.09276         1.92422
O         40.64730        37.06834         0.10012
O         47.27111        44.39172        -0.53214
O         36.11909        29.01760        -0.83450
O         48.19593        33.06905         3.55874
O         48.63237        38.00553        -1.55250
O         36.07604        35.24348         2.57353
O         46.10804        38.97967        -0.55076
O         41.01976        29.92957        -3.14017
O         45.11960        40.59181         2.72973
O         32.42254        42.18345         3.33990
O         33.65743        32.70938         1.56917
O         44.92530        42.72835         1.17284
O         45.46895        33.03827         3.42054
H         46.04127        33.04869         4.21856
O         33.09683        39.56140        -0.41193
H         33.63148        40.10097        -1.04490
O         32.89158        32.95264        -1.97902
H         33.21584        32.44035        -2.75969
O         37.50673        42.00041        -0.76521
H         36.71669        41.47127        -1.05753
O         49.69229        43.31618        -0.63667
H         49.40244        44.21016        -0.35329
O         38.18757        27.24407        -1.73612
H         37.40304        27.43915        -1.17334
O         41.33285        43.41805         2.16905
H         41.71223        42.76939         2.82312
O         39.49063        28.74002        -4.70521
H         40.29078        28.58195        -5.24688
O         33.38201        43.20735        -0.87545
H         32.49579        42.79056        -0.85388
O         35.35755        41.16875         2.80960
H         36.27698        41.19458         3.14321
O         48.84184        39.87651        -3.32199
H         48.38208        39.02141        -3.14619
O         46.38938        29.34221         1.91693
H         46.48998        28.36945         2.01026
O         31.98341        34.30982         3.02678
H         31.40677        33.52922         3.15667
O         44.97989        42.58965        -2.63534
H         44.06359        42.51790        -2.99075
O         49.96601        34.78687         0.29940
H         49.95216        33.83513         0.54443
O         38.43001        30.70746        -3.08486
H         39.28549        30.52640        -3.55100
O         42.77577        46.49279        -0.62489
H         42.87112        47.38781        -1.01692
O         31.01634        38.26897        -0.05151
H         30.77864        37.42199        -0.47994
O         40.89674        31.24816         1.69375
H         40.06092        30.80588         2.01780
O         38.58551        44.32202        -2.79510
H         37.70527        44.14154        -3.18500
O         38.81418        33.31543         2.33645
H         38.69329        32.33620         2.19405
O         46.05951        34.06699        -0.03882
H         45.39026        34.17851        -0.74763
O         43.74820        29.23222         1.23703
H         44.45628        29.41806         1.89996
O         41.56073        32.26913        -1.71889
H         41.95138        31.78365        -2.47750
O         37.84253        45.90667         1.19444
H         37.71208        45.51172         2.08698
O         34.34809        30.50538         0.31390
H         34.24630        31.08256         1.11107
O         42.56365        41.29023         3.25324
H         43.47106        41.46758         3.59392
O         47.73033        36.47681         4.01521
H         46.83761        36.81949         4.24498
O         35.30365        37.68436         3.12957
H         35.62966        36.85753         3.55750
O         51.64582        34.20502         4.28571
H         52.23525        34.96910         4.45129
O         48.72794        29.67872        -0.92648
H         48.13367        29.53585        -1.69097
O         35.61199        32.93920        -2.17624
H         35.95455        32.32668        -2.86428
O         39.80232        46.89870        -0.53009
H         40.60499        46.96988         0.03004
O         34.25093        31.02283        -3.29971
H         34.33186        30.36228        -4.02444
O         38.87219        42.84593         2.44178
H         39.68265        43.35673         2.69361
O         47.26592        31.67084        -0.75505
H         47.12677        32.64941        -0.78396
O         40.14782        41.61871        -0.80558
H         39.21307        41.55155        -1.12196
O         48.77552        28.72075         2.53398
H         49.39322        28.94620         3.26001
O         39.33057        28.72055        -0.12892
H         38.92086        29.07451         0.71695
O         51.13326        37.42952        -2.28675
H         51.85472        36.77914        -2.15724
