         651
 CSIRO Nanostructure Databank - Neutral Graphene Oxide Data Set
C          5.84104        31.69087         0.97573
C          5.82885        33.05645         0.93720
C          8.34604        27.40360         0.73609
C          8.29724        28.79614         0.93461
C          7.10338        29.55313         0.94626
C          8.28531        31.73412         0.86167
C          7.08161        30.96478         0.95214
C          8.27803        33.12089         0.59633
C          7.01559        33.85228         0.71987
C          7.83190        36.20344         0.39900
C          6.86013        35.24885         0.83691
C          8.17022        37.48078         0.80391
C         10.70885        23.17844        -0.25917
C         10.72583        24.46880         0.13952
C          9.49059        25.16160         0.70294
C         10.79477        27.35487         0.89646
C          9.55948        26.68365         0.76175
C         10.84228        28.78226         0.99692
C          9.56423        29.49400         1.20302
C         10.82704        31.70066         0.88133
C          9.55181        31.03007         1.14118
C         10.80742        33.09343         0.66051
C          9.56466        33.78144         0.45823
C         10.80786        35.93747         0.32920
C          9.67406        35.12785         0.07327
C         10.71304        37.39022         0.40946
C          9.45306        38.11410         0.49546
C         10.72121        40.25273         0.42893
C          9.50203        39.51624         0.47772
C         10.75265        41.65075         0.25176
C         13.43320        18.99299        -0.04264
C         13.26908        20.37638        -0.43998
C         12.07631        21.01557        -0.29140
C         13.27057        23.13821        -0.40327
C         11.93128        22.43879        -0.77516
C         13.17905        24.66383        -0.53886
C         12.02751        25.16823         0.31725
C         13.35573        27.30756         0.76225
C         12.05336        26.57233         0.81479
C         13.33576        28.81275         0.87968
C         12.03661        29.52957         0.92255
C         13.25342        31.69804         0.61077
C         12.03697        30.96285         0.84107
C         13.27870        33.09626         0.56664
C         12.03764        33.82576         0.56127
C         13.30731        35.99458         0.26614
C         12.02785        35.23039         0.47793
C         13.17905        37.37576         0.86299
C         11.91083        38.12002         0.63241
C         13.18068        40.27189         0.78930
C         11.94841        39.53148         0.65237
C         13.19633        41.63461         0.56572
C         11.97663        42.38324         0.30145
C         13.19941        44.58332         0.64296
C         11.99801        43.77976         0.20988
C         13.29034        46.01225         0.14226
C         15.76436        14.69991        -0.20428
C         15.82060        16.06535        -0.28065
C         14.65975        16.86772         0.25878
C         15.79698        18.95406        -0.72274
C         14.59007        18.29338        -0.23859
C         15.74970        20.34085        -0.99940
C         14.39795        20.98780        -1.25739
C         15.74174        23.21048        -0.87035
C         14.42235        22.56183        -1.24887
C         15.72441        24.63484        -0.57413
C         14.52116        25.31960        -0.26422
C         15.76368        27.40433         0.12818
C         14.55256        26.65397         0.19021
C         15.74759        28.85430         0.29007
C         14.55427        29.52346         0.47238
C         15.81252        31.73955         0.38396
C         14.49380        30.97466         0.31525
C         15.77457        33.16155         0.70893
C         14.53650        33.83091         0.63057
C         15.73751        35.92931         0.95741
C         14.53935        35.24532         0.71389
C         15.72548        37.40443         0.89451
C         14.43256        38.10722         1.18574
C         15.73907        40.28643         1.03830
C         14.41950        39.61990         1.39049
C         15.76182        41.65377         0.74024
C         14.48807        42.34535         0.43970
C         15.77381        44.59312         0.64855
C         14.49178        43.83177         0.36041
C         15.77793        45.86388        -0.20734
C         14.48785        46.65884        -0.05293
C         15.74831        48.79889        -0.19659
C         14.55041        48.08248        -0.26093
C         15.82468        50.19601        -0.42848
C         18.17670        10.21205        -0.20351
C         18.14555        11.67527        -0.60359
C         16.89141        12.49254        -0.32995
C         18.12495        14.51948        -1.08854
C         16.88501        13.84415        -0.53621
C         18.15513        16.03458        -0.99625
C         17.02962        16.77012        -0.71201
C         18.18847        18.93465        -1.25089
C         17.01692        18.23239        -0.85796
C         18.17792        20.34561        -1.30788
C         16.95186        21.06805        -1.16912
C         18.19717        23.30335        -1.31524
C         16.92031        22.52822        -1.08573
C         18.20208        24.71281        -0.78699
C         16.96740        25.36306        -0.52782
C         18.15923        27.58287        -0.59596
C         16.94327        26.76345        -0.26782
C         18.20518        28.89110         0.14622
C         17.01486        29.57656         0.33968
C         18.22031        31.69819         0.87837
C         17.04229        30.98739         0.61816
C         18.23730        33.12361         0.98521
C         16.99690        33.84666         0.93994
C         18.22601        35.96675         1.34416
C         16.98407        35.25900         1.08324
C         18.20822        37.36483         1.49987
C         17.00560        38.12568         1.15562
C         18.18353        40.28196         1.15458
C         16.95838        39.60142         1.24999
C         18.20408        41.63433         0.78624
C         16.99612        42.34910         0.60131
C         18.22922        44.47597         0.28015
C         17.04120        43.79015         0.42152
C         18.25078        45.94131         0.23357
C         17.04111        46.63461         0.10625
C         18.34836        48.83123         0.07416
C         16.98445        48.07680         0.19163
C         18.30572        50.19071        -0.45696
C         17.05022        50.89231        -0.57050
C         18.28458        52.92637        -1.23992
C         17.08157        52.26813        -0.93047
C         18.34227        54.30923        -1.56534
C         20.75289         6.09898        -0.64370
C         20.67138         7.40738        -0.11955
C         19.45714         8.10830        -0.14609
C         20.60202        10.25748         0.39833
C         19.35506         9.52946         0.02253
C         20.59663        11.74979         0.27603
C         19.32701        12.46350        -0.03971
C         20.62219        14.67672        -0.35179
C         19.33525        13.94042        -0.36084
C         20.73951        15.98215        -1.08342
C         19.43249        16.68588        -1.38060
C         20.76778        18.88302        -1.66329
C         19.43335        18.17853        -1.58653
C         20.78135        20.38615        -1.53844
C         19.45498        21.10580        -1.46175
C         20.69367        23.22950        -0.67245
C         19.42000        22.50747        -0.91739
C         20.71705        24.71795        -0.67802
C         19.44472        25.43441        -0.70442
C         20.66735        27.60971        -0.54093
C         19.43458        26.81380        -0.48951
C         20.74122        28.94290         0.07815
C         19.46855        29.49293         0.56859
C         20.75026        31.71496         1.01008
C         19.48029        30.96364         1.01428
C         20.71700        33.07978         1.26432
C         19.46412        33.82283         1.23461
C         20.69827        35.91665         1.86997
C         19.45195        35.21815         1.44045
C         20.67879        37.38758         2.14920
C         19.39371        38.13248         1.92031
C         20.74486        40.25458         1.37573
C         19.42651        39.61106         1.61323
C         20.75962        41.61231         0.85443
C         19.49740        42.24637         0.45160
C         20.79573        44.43929         0.29407
C         19.51054        43.74812         0.14929
C         20.78960        45.89656         0.29942
C         19.50432        46.62486         0.14922
C         20.75643        48.64893        -0.50042
C         19.55867        48.01005        -0.08857
C         20.73277        50.01741        -0.80935
C         19.50908        50.78912        -0.85288
C         20.71688        52.76151        -1.68584
C         19.52089        52.17301        -1.25212
C         20.83188        54.22160        -2.10139
C         19.54764        54.98376        -1.83525
C         20.80325        57.11064        -1.90314
C         19.57893        56.38114        -1.94362
C         20.83968        58.49363        -2.06537
C         23.26089         3.62511        -1.93846
C         22.02545         4.19465        -1.52814
C         23.23102         5.93750        -0.25338
C         21.97162         5.39654        -0.81360
C         23.23744         7.35206         0.24854
C         21.92276         8.05952         0.37094
C         23.20273        10.28852         0.40782
C         21.91947         9.55179         0.52535
C         23.19687        11.71300         0.31086
C         21.90867        12.42100         0.01119
C         23.11398        14.69592         0.04761
C         21.89231        13.89209        -0.23380
C         23.11591        16.13235        -0.35784
C         22.02195        16.72812        -0.91733
C         23.30827        18.94394        -1.10954
C         22.06779        18.14707        -1.39675
C         23.24123        20.42509        -0.99611
C         22.03234        21.07273        -1.12402
C         23.24686        23.26944        -0.73520
C         21.97786        22.54324        -1.02189
C         23.13558        24.60743        -0.03613
C         21.91603        25.37367        -0.53982
C         23.18193        27.57672        -0.28328
C         21.97878        26.83803        -0.64950
C         23.19038        28.92228         0.01998
C         21.93827        29.61007         0.28603
C         23.20854        31.61273         0.99270
C         21.99210        30.98042         0.81680
C         23.27315        32.98591         1.50734
C         21.96781        33.76306         1.65603
C         23.20600        35.91529         1.88498
C         22.01617        35.24333         1.72478
C         23.24213        37.38538         1.95787
C         21.97584        38.20169         2.32192
C         23.17800        40.31792         1.51742
C         21.91146        39.58287         1.66205
C         23.19338        41.61415         0.79241
C         21.94952        42.30592         0.61408
C         23.26535        44.37070        -0.02527
C         21.99515        43.72006         0.27053
C         23.33171        45.75137        -0.24964
C         22.10292        46.56645        -0.05429
C         23.28533        48.63104        -0.76452
C         21.99832        47.84476        -0.85667
C         23.23736        49.99461        -0.93278
C         21.95442        50.64887        -1.19687
C         23.61988        52.98759        -1.28944
C         21.83661        51.90844        -1.78609
C         23.20808        54.34768        -0.95100
C         22.04775        55.00534        -1.58589
C         23.20281        57.16700        -1.17000
C         22.01806        56.38733        -1.53241
C         23.22933        58.56802        -1.44520
C         22.04880        59.23825        -1.90106
C         23.28681        61.34193        -1.95717
C         22.09645        60.62573        -2.14212
C         24.46942         4.18293        -1.60692
C         25.85488         6.03668        -0.46772
C         24.54094         5.29192        -0.64625
C         25.72513         7.50776        -0.09342
C         24.49216         8.14655         0.15353
C         25.67727        10.28778         0.35235
C         24.45379         9.56953         0.33043
C         25.68129        11.76802         0.62428
C         24.38523        12.43656         0.23915
C         25.63772        14.63359        -0.20869
C         24.38764        13.91910         0.19862
C         25.63114        16.11934        -0.27710
C         24.36028        16.89291         0.07756
C         25.66737        18.94137        -0.31271
C         24.47672        18.29405        -0.46583
C         25.80946        20.38744        -0.74312
C         24.47981        21.12808        -0.70509
C         25.71556        23.25248        -0.41909
C         24.48805        22.49509        -0.55754
C         25.68551        24.62226        -0.46136
C         24.45013        25.36758        -0.15073
C         25.65658        27.59463        -0.75113
C         24.45792        26.84679        -0.23743
C         25.65334        28.98830        -0.15461
C         24.47675        29.58537         0.22048
C         25.73383        31.72940         0.68491
C         24.52175        30.87186         1.00188
C         25.73048        33.13476         1.00900
C         24.53123        33.75089         1.38943
C         25.82883        35.88244         1.85511
C         24.49855        35.14086         1.87684
C         25.75907        37.37722         1.94164
C         24.43354        38.05694         1.86427
C         25.59640        40.04446         0.88173
C         24.46989        39.53926         1.69033
C         25.43832        41.17897         0.13153
C         24.35405        42.11304         0.21303
C         25.82273        44.28241        -0.56377
C         24.46084        43.52426        -0.29404
C         25.83110        45.78335        -0.46381
C         24.56786        46.47314        -0.45153
C         25.76233        48.63366        -0.55668
C         24.55482        47.91630        -0.55849
C         25.75875        50.11850        -0.90199
C         24.46119        50.74979        -0.42698
C         25.60396        52.93545         0.13049
C         24.48048        52.24918        -0.54880
C         25.58279        54.44273         0.13552
C         24.31732        55.15346        -0.26084
C         25.60748        57.26612        -0.54019
C         24.35706        56.56553        -0.63477
C         25.62155        58.63534        -0.84499
C         24.44044        59.30593        -1.25676
C         24.44238        60.70261        -1.52758
C         26.92146         8.23105        -0.00131
C         28.17257        10.34297         0.36544
C         26.92757         9.62334         0.25588
C         28.22347        11.74232         0.32599
C         26.93033        12.43034         0.06402
C         28.18450        14.67242         0.08493
C         26.94617        13.90181        -0.17370
C         28.13881        16.05577         0.15926
C         26.92207        16.82656        -0.05709
C         28.05152        18.94605         0.54845
C         26.87562        18.20013         0.04184
C         28.03764        20.43764         0.60322
C         26.91853        21.14576        -0.03371
C         28.12319        23.29527         0.15213
C         26.97107        22.54389        -0.15375
C         28.04400        24.78310         0.29693
C         26.97998        25.36790        -0.64283
C         28.18082        27.57740        -0.69234
C         26.91070        26.84273        -0.44624
C         28.11922        29.02240        -0.26856
C         26.91976        29.68134        -0.03304
C         28.14093        31.84147         0.12707
C         26.91332        31.09642         0.28882
C         28.17221        33.22741         0.43124
C         26.98611        33.88646         0.90639
C         28.25785        36.01618         1.11636
C         27.02650        35.25051         1.25083
C         28.27314        37.39088         1.38637
C         27.02704        38.13102         1.71406
C         28.23993        40.34368         1.21030
C         26.95032        39.57359         1.30111
C         28.41858        41.63541         0.46946
C         27.34916        42.26192        -0.25649
C         28.40274        44.39225        -0.38594
C         27.15567        43.62791        -0.35929
C         28.38555        45.87758        -0.65038
C         27.03206        46.51904        -0.39847
C         28.22778        48.71504        -0.36622
C         27.02989        47.96741        -0.42137
C         28.27363        50.21390        -0.61113
C         26.95234        50.90023        -0.38307
C         28.11582        53.02296         0.16181
C         26.90035        52.21787        -0.02390
C         28.05869        54.44257         0.18394
C         26.86065        55.18248         0.03536
C         26.81892        56.55769        -0.21170
C         29.40820        12.50307         0.31264
C         30.65352        14.62642         0.31923
C         29.43530        13.93645         0.25083
C         30.71025        16.06305         0.58640
C         29.36298        16.79054         0.55115
C         30.65104        19.03132         0.51199
C         29.37760        18.27705         0.37890
C         30.63409        20.42389         1.13167
C         29.31794        21.18529         0.91218
C         30.62589        23.39590         0.59819
C         29.34747        22.64902         0.64279
C         30.58879        24.77083         0.42784
C         29.37084        25.49769         0.12996
C         30.63264        27.60491        -0.19939
C         29.39979        26.84464        -0.17331
C         30.59392        29.01615        -0.37783
C         29.35091        29.74501        -0.31925
C         30.52105        31.91317        -0.74281
C         29.32448        31.15008        -0.25771
C         30.55687        33.33861        -0.22911
C         29.42539        33.95715         0.28454
C         30.68619        36.08001         0.56311
C         29.47239        35.36587         0.66539
C         30.82269        37.43268         1.13407
C         29.53220        38.12449         1.56318
C         30.79853        40.32789         1.27430
C         29.53282        39.64762         1.74572
C         30.76715        41.73395         1.19664
C         29.55422        42.37633         0.73661
C         30.75978        44.56353         0.64673
C         29.65849        43.72355         0.15505
C         30.74039        45.99568         0.38267
C         29.58349        46.59995        -0.05979
C         30.56392        48.76582         0.60971
C         29.59816        48.07638        -0.36546
C         30.55391        50.25795         0.47124
C         29.42331        50.92801         0.08876
C         29.33939        52.35004         0.23899
C         31.93448        16.87935         0.48916
C         33.11357        19.05293         0.60806
C         31.93823        18.27458         0.59364
C         33.11570        20.49371         0.68271
C         31.87633        21.22787         0.78381
C         33.10243        23.35768         0.72588
C         31.87854        22.65878         0.73846
C         33.14841        24.82394         0.71754
C         31.82267        25.56409         0.55425
C         33.09334        27.63519        -0.00707
C         31.85179        26.94021         0.06055
C         33.05423        29.01517        -0.23620
C         31.82868        29.75045        -0.38347
C         33.05717        31.88646        -0.80818
C         31.81167        31.15058        -0.54949
C         33.04839        33.39750        -0.79124
C         31.72163        34.17701        -0.69717
C         33.07122        36.19361        -0.05225
C         31.86101        35.49252         0.01699
C         33.12335        37.59513         0.27858
C         32.02452        38.24003         0.81375
C         33.21999        40.45829         0.93369
C         32.02870        39.67748         1.05806
C         33.23474        41.86102         1.17692
C         31.95987        42.49185         1.27711
C         33.62969        44.96826         0.92738
C         31.76706        43.92504         1.33010
C         33.31553        46.08919         0.22428
C         32.01374        46.77638         0.43221
C         31.92837        48.13071         0.47545
C         34.33045        21.18676         0.68536
C         35.56510        23.34480         0.38977
C         34.39243        22.64537         1.00958
C         35.60165        24.73973         0.17348
C         34.38221        25.53827         0.31640
C         35.60713        27.61586        -0.28229
C         34.37208        26.90486         0.06273
C         35.55787        28.98650        -0.44183
C         34.32343        29.76909        -0.03482
C         35.52053        31.87125        -0.12849
C         34.36921        31.11145        -0.76656
C         35.52173        33.36890        -0.11342
C         34.30809        34.12124        -0.49372
C         35.59663        36.19206        -0.21884
C         34.31851        35.49191        -0.31939
C         35.64001        37.56565        -0.04521
C         34.37862        38.33824         0.02227
C         35.75661        40.38657         0.70526
C         34.43539        39.79333         0.41085
C         35.79638        41.80655         1.22089
C         34.50628        42.60846         1.04532
C         34.66846        43.95124         0.80464
C         36.80466        25.38500        -0.12561
C         38.08536        27.51053         0.31163
C         36.92944        26.84720        -0.45520
C         38.53540        28.72272        -0.10131
C         36.71301        29.82571        -0.70361
C         38.05968        31.77586         0.16101
C         36.79446        31.12696        -0.25974
C         38.04419        33.30074         0.22639
C         36.81608        34.07031        -0.10327
C         38.14231        36.16243        -0.49200
C         36.83933        35.43025        -0.25400
C         38.09502        37.57672         0.03089
C         36.90978        38.25726         0.14532
C         36.89457        39.66244         0.54722
C         39.52445        29.68146         0.38818
C         40.51654        31.90092         0.58276
C         39.37066        31.05132         0.29254
C         40.51663        33.26179         0.51341
C         39.32884        34.04123         0.20481
C         39.35550        35.37718        -0.05101
O         21.34618        27.43837        -1.83866
O         22.61709        33.14494         2.81466
O         19.73998        14.74680         0.80146
O         19.52241        42.75134        -0.92668
O         35.22974        32.55171         1.11152
O         23.19196        54.65780         0.49706
O         26.55485        37.89372         3.08165
O         34.27062        39.38994        -1.00853
O         21.12285         9.90355         1.72549
O         30.41969        37.48818         2.54080
O         27.35280        40.51376         2.37554
O         25.42620        53.66268         1.37850
O         15.16285        31.43975        -0.90893
O         25.00908        43.72755        -1.63600
O         30.04500        18.83906        -0.81168
O         26.41382        41.41163        -0.82856
O         21.99837        12.96867        -1.36861
O         32.46634        25.43230         1.88030
O         25.50035        15.33992        -1.49862
O         21.01828        54.23388        -3.60832
O         32.73487        44.67283         1.99179
O         33.04687        32.67157        -2.08554
O         13.67698        37.42285         2.24723
O         23.98235        40.37607         2.76650
O         14.53145        43.08047        -0.86677
O         13.60573        27.95858         2.05440
O         22.70883        23.24832        -2.09163
O         23.05636        18.39187        -2.45747
O         19.72690        12.26960         1.34179
O         24.68595        26.20449         1.06550
O         27.71370        19.59712         1.80748
O         26.93546        12.93344        -1.29957
O          8.63335        35.69644        -0.64962
O         23.68941        14.48366         1.39165
O         23.91031         4.99907         0.64916
O         21.64787        46.56582         1.31735
O         19.47418        29.87692         1.99066
O         16.48732        37.85469        -0.26295
O         29.39916        43.75701        -1.29456
O         22.54359         7.43607         1.54486
O         29.09878        22.10093         2.04588
O         19.19682        39.12494         2.98885
O         25.32805        35.27642         3.08552
O          9.53255        30.30712         2.42006
O         20.05367        18.49716        -2.86947
O         20.16564        21.01493        -2.72331
O         29.91470        16.39387         1.82130
O         37.85858        32.50041         1.43748
O         20.17872        15.96578        -2.43418
O         37.86907        29.25785        -1.23153
O         17.66340        48.65010         1.34720
O         19.91984        22.63557         0.43878
O         12.23730        25.41202         1.74323
O         22.98115        52.41892        -2.39794
O         20.52900        36.44693         3.26068
O         13.59448        22.84494         0.96771
H         13.12683        23.47759         1.55661
O         26.21142        20.35786        -2.15396
H         25.48973        19.92945        -2.66387
O         30.13498        48.23357        -1.72280
H         29.67546        47.53235        -2.25682
O         30.34672        32.02548        -2.23074
H         31.23192        31.86115        -2.63266
O         34.73304        30.80379        -2.12974
H         34.38442        31.53370        -2.69482
O         34.40893        30.03899         1.38948
H         34.31910        29.18981         1.87040
O         18.34858        11.57456        -2.04432
H         18.18787        12.46674        -2.45289
O         22.91136        24.31673         1.36144
H         23.35367        25.02923         1.88039
O         13.06982        44.70641         2.09988
H         13.91333        45.11040         2.42248
O         13.44077        36.19112        -1.17428
H         13.57096        35.31414        -1.59277
O         26.62703         5.35374         0.52807
H         26.00753         5.11897         1.25388
O         14.06651        20.57732        -2.62567
H         13.10264        20.75629        -2.74118
O         24.45279        50.51981         1.01498
H         23.80850        51.13240         1.42840
O         25.56244        27.68208        -2.20746
H         26.44354        28.00219        -2.52437
O         27.45956        25.08358        -2.00899
H         26.70366        25.22861        -2.61943
O         29.59255        39.88660         3.16931
H         28.66765        39.85771         3.51365
O         22.10193        38.47085         3.73160
H         21.76447        37.67943         4.21004
O         11.79438        22.38432        -2.22439
H         11.82994        23.31706        -2.54130
O         15.76653        45.01275         2.04201
H         16.11816        44.28388         2.59509
O         28.36036        27.62771        -2.17182
H         28.36972        26.67997        -2.46172
O         12.78652        25.02852        -1.89028
H         13.46787        24.64421        -2.49738
O         31.37295        34.58956        -2.06127
H         30.91237        33.82144        -2.47992
O         30.04312        48.47146         1.94250
H         30.67402        48.82920         2.60126
O         14.29563        39.85414         2.82434
H         13.77700        39.09808         3.18932
O         24.28131        17.05628         1.51428
H         24.10591        16.16578         1.91007
O         18.31610        23.42739        -2.77316
H         17.54267        23.93440        -3.09891
O         19.89787        53.51946        -4.17665
H         19.27385        54.24311        -4.42818
O         36.92551        42.48967         0.67452
H         36.93145        42.34834        -0.29429
O         34.58000        22.73756         2.49616
H         34.14160        23.56133         2.80338
O         25.81262        50.20053        -2.34686
H         26.76692        50.16195        -2.60834
O         21.82202        47.39785        -2.23856
H         21.94248        48.17434        -2.82515
O         18.20037        14.19704        -2.50577
H         18.96383        14.70872        -2.88160
O         30.74425        20.16828         2.55643
H         30.32076        20.93159         3.01520
O          8.31868        24.73211         0.01029
H          8.42684        24.93474        -0.94111
O         25.82128        11.95552         2.07722
H         25.05459        11.52474         2.51262
O         28.57474        46.04465        -2.10825
H         29.07282        45.24401        -2.40494
O         38.27549        36.28854        -1.95738
H         37.53920        36.85756        -2.26845
O         14.28375        23.01789        -2.62348
H         14.40772        22.21159        -3.19064
O         15.84260        45.44113        -1.59064
H         15.71153        46.22496        -2.16229
O         13.41907        16.19076         0.03696
H         13.26573        16.13966        -0.92861
O         18.03296        27.91904        -2.04067
H         18.93931        28.01414        -2.40771
O         37.27816        26.84972        -1.87131
H         36.48496        26.57849        -2.37788
O         28.54499        50.35040        -2.05811
H         29.30959        49.73971        -2.24257
O         27.56795        25.04942         1.64209
H         28.07023        24.48168         2.26557
O         24.68685        30.47085         2.40901
H         25.51344        29.94707         2.47611
H          4.89980        31.13137         1.07577
H          4.86984        33.58906         1.02131
H          7.41175        26.84462         0.57620
H          6.14219        29.01911         0.89269
H          5.91963        35.61518         1.27894
H          7.48579        38.04394         1.45672
H          9.74324        22.64968        -0.31606
H          9.37569        24.80763         1.76579
H          8.55561        40.07767         0.49082
H          9.80847        42.19645         0.10438
H         12.57533        18.48296         0.42197
H         11.22932        20.50457         0.19208
H         11.05284        44.31431         0.02504
H         12.36601        46.61239         0.17954
H         14.84282        14.23117         0.17412
H         14.79045        16.91571         1.37880
H         13.60814        48.63169        -0.41481
H         14.88860        50.74651        -0.60843
H         17.27810         9.62289        -0.45023
H         15.98903        11.99537         0.05937
H         16.13454        52.82601        -0.98367
H         17.41480        54.90110        -1.50918
H         19.83180         5.63514        -1.02977
H         18.55750         7.56758        -0.48033
H         18.63140        56.94236        -1.92968
H         19.91927        59.03075        -2.34012
H         23.23457         2.75397        -2.60862
H         21.08839         3.74450        -1.88654
H         23.30384        62.42263        -2.15635
H         21.18971        61.14640        -2.48193
H         25.40153         3.80303        -2.04932
H         26.43422         5.98151        -1.42861
H         26.56085        59.20206        -0.76352
H         25.37170        61.27356        -1.38933
H         27.87492         7.70134        -0.14013
H         29.10735         9.76370         0.41251
H         29.01245        54.99247         0.20857
H         27.76405        57.12106        -0.24318
H         30.36967        11.97908         0.42951
H         31.59595        14.06265         0.24831
H         31.39913        50.82602         0.89533
H         30.25043        52.90759         0.50681
H         32.89521        16.35069         0.38985
H         34.08839        18.54227         0.58981
H         33.98325        46.47492        -0.56054
H         32.83127        48.75913         0.46384
H         35.27377        20.62504         0.60728
H         36.49311        22.77137         0.24066
H         35.96751        41.75950         2.33594
H         35.70021        44.28494         0.59340
H         37.71224        24.77466        -0.25052
H         38.49347        27.01547         1.20332
H         39.04594        38.11030         0.18229
H         37.86452        40.13816         0.75977
H         40.49817        29.29933         0.73822
H         41.46375        31.38690         0.80887
H         41.45779        33.80806         0.67664
H         40.32070        35.90819        -0.05108
