         638
 CSIRO Nanostructure Databank - Neutral Graphene Oxide Data Set
C         22.92650        69.89789        -0.60012
C         22.89386        71.29418        -0.68380
C         21.69217        72.02590        -0.67159
C         22.88062        74.15260        -0.45041
C         21.69970        73.42983        -0.58964
C         25.39053        65.61711        -0.24737
C         25.32128        67.00626        -0.14668
C         24.13688        67.76447        -0.38346
C         25.38970        69.91597        -0.27967
C         24.13760        69.16484        -0.44821
C         25.37792        71.31836        -0.34828
C         24.18553        72.04925        -0.89006
C         25.32172        74.20151        -0.21011
C         24.14912        73.50654        -0.46712
C         27.91985        61.36426        -0.75627
C         27.87092        62.78845        -0.68752
C         26.65727        63.49049        -0.48032
C         27.87319        65.60901        -0.33427
C         26.63386        64.89219        -0.31253
C         27.89161        67.00184         0.08291
C         26.53456        67.76753         0.19877
C         27.79935        69.92753         0.54582
C         26.56580        69.20789         0.06349
C         27.87705        71.35742         0.07879
C         26.63343        72.08392        -0.27969
C         27.73676        74.22727         0.31439
C         26.60587        73.55651        -0.07730
C         30.37196        57.11509        -1.22230
C         30.33946        58.48802        -1.21259
C         29.14673        59.22571        -0.93046
C         30.38412        61.34951        -1.07548
C         29.11596        60.63062        -0.93721
C         30.32702        62.83265        -1.12559
C         29.07690        63.54664        -0.84504
C         30.35779        65.66999        -0.64647
C         29.09106        64.94651        -0.67980
C         30.34782        67.15304        -0.62441
C         29.07624        67.83983        -0.24884
C         30.28480        69.95810         0.24029
C         29.10611        69.24842         0.18420
C         30.27727        71.40283         0.50691
C         29.09465        72.09950         0.47694
C         30.30455        74.29666         0.25993
C         29.03199        73.57893         0.76509
C         32.85138        52.81466        -0.90940
C         32.81486        54.23975        -1.14708
C         31.63131        54.92425        -1.34701
C         32.86180        57.11591        -1.30466
C         31.59928        56.38433        -1.71693
C         32.85854        58.50586        -1.22512
C         31.59261        59.24194        -1.61674
C         32.89347        61.44920        -1.31985
C         31.57535        60.69514        -1.21358
C         32.80279        62.75488        -0.50484
C         31.61873        63.58330        -0.95329
C         32.81068        65.69096        -0.28798
C         31.56752        65.00873        -0.61801
C         32.80770        67.04976        -0.10793
C         31.66465        67.92578        -0.56257
C         32.70058        69.93032         0.58402
C         31.56736        69.27939         0.14894
C         32.73001        71.36230         0.85750
C         31.53573        72.10764         0.68052
C         32.80496        74.17295         0.68383
C         31.57420        73.52332         0.60639
C         35.33548        48.55640        -0.48202
C         35.32019        49.93452        -0.55647
C         33.99334        50.65131        -0.40216
C         35.29438        52.81248        -0.81954
C         34.03169        52.12541        -0.73815
C         35.28547        54.20471        -1.02169
C         34.08092        54.94835        -1.14439
C         35.27321        57.11073        -0.89800
C         34.07506        56.37920        -1.15036
C         35.25638        58.48570        -0.69421
C         34.05508        59.23094        -0.90229
C         35.30749        61.35993        -0.62261
C         34.09609        60.65308        -0.86015
C         35.31658        62.82712        -0.48972
C         34.08542        63.54576        -0.43490
C         35.29249        65.62101         0.07052
C         34.05955        64.92294        -0.18108
C         35.30524        67.01928         0.34207
C         33.99793        67.70273         0.45565
C         35.23207        69.85065         1.07203
C         33.93825        69.14529         0.79744
C         35.19523        71.30676         1.39258
C         33.94364        72.04853         1.11238
C         35.28599        74.13050         0.88450
C         34.01046        73.45885         0.93546
C         37.77542        44.28364         0.28932
C         37.75775        45.70909         0.11412
C         36.55419        46.41490        -0.11846
C         37.79969        48.48977        -0.44030
C         36.56441        47.80130        -0.36921
C         37.81778        49.90880        -0.94034
C         36.54074        50.67840        -0.67726
C         37.81551        52.79272        -0.80921
C         36.55082        52.07818        -0.76607
C         37.83658        54.19300        -0.88690
C         36.57193        54.90993        -1.14248
C         37.80290        57.10067        -0.64995
C         36.56095        56.40682        -1.02076
C         37.77383        58.45995        -0.40651
C         36.47428        59.17711        -0.13460
C         37.76193        61.32335        -0.28934
C         36.52095        60.65355        -0.43585
C         37.82210        62.81353        -0.55221
C         36.51815        63.52399        -0.31701
C         37.74563        65.66104         0.16083
C         36.53129        64.92021        -0.01205
C         37.72978        67.03104         0.40570
C         36.49929        67.73010         0.50730
C         37.73898        69.97351         0.90169
C         36.48101        69.25445         0.45361
C         37.73938        71.27894         1.27182
C         36.48938        72.07604         1.62332
C         37.76326        74.14015         1.05485
C         36.50440        73.48572         1.08466
C         40.19108        39.97301         0.45653
C         40.18020        41.39892         0.38550
C         38.99103        42.12675         0.40165
C         40.22944        44.26319         0.38437
C         38.97795        43.56025         0.36121
C         40.21916        45.74393         0.64016
C         38.97901        46.43494         0.15169
C         40.26851        48.53482        -0.14536
C         39.00636        47.81376        -0.14953
C         40.27818        49.94890        -0.33161
C         39.06594        50.66346        -0.55850
C         40.30895        52.77202        -0.55988
C         39.06991        52.06295        -0.65292
C         40.36713        54.24619        -0.90294
C         39.03735        54.95662        -0.77973
C         40.27513        57.10586        -0.55314
C         39.03348        56.35704        -0.66091
C         40.22733        58.52917        -0.47769
C         39.00434        59.19207        -0.31063
C         40.18481        61.28662         0.43024
C         38.96119        60.61743        -0.14958
C         40.29063        62.77279         0.03995
C         38.95825        63.50349         0.24499
C         40.26948        65.68082         0.49519
C         39.07047        64.99196        -0.12973
C         40.26355        67.05329         0.56398
C         39.00520        67.82536         0.21673
C         40.27790        69.97765         0.57496
C         39.02242        69.17090         0.96957
C         40.29147        71.36239         1.17639
C         39.01805        72.00134         1.66596
C         40.20786        74.18560         1.34542
C         38.98726        73.48912         1.32666
C         42.66505        35.74429         1.03099
C         42.61944        37.11359         0.78874
C         41.40980        37.83712         0.60950
C         42.64020        39.92873        -0.06387
C         41.37474        39.22870         0.37993
C         42.62634        41.42105         0.13074
C         41.45703        42.11092         0.30038
C         42.68486        44.28200         0.39109
C         41.45355        43.57507         0.36871
C         42.71293        45.70646         0.30317
C         41.49839        46.43403         0.25625
C         42.74383        48.54683        -0.01241
C         41.49458        47.83680         0.04574
C         42.75442        49.95625        -0.11983
C         41.51062        50.66550        -0.24088
C         42.77901        52.80829         0.01281
C         41.50272        52.08185        -0.35363
C         42.78916        54.27142        -0.32694
C         41.47280        54.97508        -0.12698
C         42.75454        57.14845        -0.50271
C         41.50592        56.43525        -0.49058
C         42.75173        58.53764        -0.50126
C         41.48613        59.32980        -0.67104
C         42.69665        61.25620         0.44312
C         41.49521        60.61910         0.10711
C         42.69368        62.66486         0.94975
C         41.42884        63.45788         0.77675
C         42.69609        65.56408         0.98871
C         41.48747        64.93368         0.74332
C         42.71399        67.02920         1.33928
C         41.47218        67.78350         0.90087
C         42.75600        69.85914         1.23438
C         41.49426        69.14929         0.94043
C         42.75198        71.34284         1.30249
C         41.45336        72.06240         1.25395
C         42.69632        74.17887         1.51757
C         41.47070        73.51348         1.42858
C         45.11538        33.01333         1.86500
C         43.90879        33.68434         1.60575
C         45.14358        35.77132         1.30219
C         43.89519        35.06294         1.32355
C         45.17565        37.16190         0.99571
C         43.88405        37.88178         0.90551
C         45.17273        40.01824         0.29948
C         43.88322        39.32705         0.56336
C         45.17974        41.34944         0.06090
C         43.91129        42.15573        -0.19630
C         45.20091        44.29046         0.19131
C         43.96622        43.50121         0.53427
C         45.20593        45.67899         0.20721
C         43.96230        46.41071         0.20427
C         45.22086        48.51596        -0.05674
C         43.97697        47.81985         0.06208
C         45.23132        49.92841        -0.22901
C         44.00857        50.65379        -0.21267
C         45.22928        52.74793        -0.60077
C         44.03946        52.06915        -0.34771
C         45.15869        54.18498        -1.09391
C         43.94901        54.93943        -0.57495
C         45.22745        57.03152        -0.37892
C         44.00244        56.39260        -0.52369
C         45.27775        58.50269        -0.26387
C         44.00076        59.29575        -0.34998
C         45.13977        61.21822         0.97696
C         43.94144        60.62435         0.27783
C         45.17361        62.71502         0.82042
C         43.96580        63.41867         0.91853
C         45.18171        65.53978         0.80205
C         43.94410        64.83773         0.95311
C         45.18820        66.99976         0.79965
C         44.00343        67.72611         0.94896
C         45.23496        69.85786         1.03506
C         44.03060        69.14472         0.99701
C         45.26089        71.30666         1.22483
C         44.00202        72.09617         0.91879
C         45.14997        74.12846         1.80690
C         43.97884        73.50766         1.47168
C         46.32861        33.68353         1.82741
C         47.59162        35.78994         1.45827
C         46.37264        35.07689         1.52926
C         47.62216        37.15337         1.09682
C         46.38340        37.83322         0.83445
C         47.68977        39.97554         0.50842
C         46.44064        39.19481         0.17871
C         47.71497        41.35724         0.32331
C         46.47608        42.06530        -0.07460
C         47.71781        44.26725         0.39066
C         46.47373        43.57402         0.01248
C         47.69550        45.70801         0.39886
C         46.46125        46.39812         0.18154
C         47.69757        48.51763        -0.02948
C         46.45989        47.80508         0.03228
C         47.70519        49.92135        -0.28188
C         46.46933        50.62985        -0.38175
C         47.72842        52.70053        -0.78357
C         46.47128        52.03334        -0.61544
C         47.76984        54.18051        -0.90557
C         46.48175        54.94825        -0.94971
C         47.68770        56.93280        -0.03138
C         46.48758        56.32745        -0.40432
C         47.66616        58.27662         0.60816
C         46.41283        59.08064         0.50589
C         47.65898        61.23626         0.65581
C         46.44315        60.54779         0.63944
C         47.64882        62.67538         0.61946
C         46.40362        63.40454         0.67125
C         47.62583        65.55789         0.20353
C         46.37675        64.82651         0.61672
C         47.65651        66.99856         0.65782
C         46.43966        67.70429         0.77637
C         47.69167        69.79010         1.17355
C         46.46278        69.12211         0.98963
C         47.68597        71.18922         1.65021
C         46.41559        71.94386         1.57724
C         47.70904        74.09871         1.57078
C         46.44741        73.38878         2.02870
C         48.85269        37.87052         1.04109
C         50.11913        39.99422         0.87905
C         48.90083        39.26878         0.81611
C         50.15508        41.39670         0.74451
C         48.91648        42.10152         0.51951
C         50.13272        44.23223         0.95179
C         48.89240        43.53121         0.56784
C         50.13405        45.75449         0.90288
C         48.89532        46.44599         0.51487
C         50.15731        48.56507         0.19395
C         48.92432        47.83884         0.22538
C         50.17943        49.90295        -0.21070
C         48.94313        50.60668        -0.42912
C         50.22002        52.73655        -0.98933
C         48.93212        52.00452        -0.69712
C         50.21719        54.16856        -0.48764
C         48.99889        54.87384        -0.45390
C         50.18360        56.95380         0.11523
C         48.95252        56.24276        -0.11132
C         50.19143        58.34065         0.41103
C         48.95649        59.01550         0.96319
C         50.12189        61.21195         0.68600
C         48.91807        60.51540         0.66846
C         50.12005        62.65996         0.67067
C         48.88753        63.38177         0.58560
C         50.10578        65.50379         0.54143
C         48.89410        64.80354         0.51014
C         50.12088        66.96604         0.59630
C         48.88372        67.68180         0.75603
C         50.15648        69.80509         1.00321
C         48.91148        69.09376         1.02489
C         50.19407        71.24444         1.17483
C         49.00250        71.93426         1.73107
C         50.11886        74.11040         1.07792
C         49.03270        73.45741         1.89024
C         51.38814        42.11791         0.79561
C         52.61284        44.27931         0.82883
C         51.42772        43.52528         0.83422
C         52.62284        45.71469         0.77385
C         51.41703        46.43568         0.73288
C         52.67940        48.55760         0.28269
C         51.40255        47.93651         0.77674
C         52.67193        49.86697        -0.16849
C         51.44613        50.61103        -0.34237
C         52.68436        52.73711        -0.55351
C         51.46882        51.98916        -0.58874
C         52.69153        54.13729        -0.38532
C         51.43481        54.84936        -0.28634
C         52.65674        56.96756         0.04163
C         51.42616        56.25786        -0.04071
C         52.64332        58.37805         0.22561
C         51.40029        59.06507         0.41534
C         52.60711        61.18717         0.64260
C         51.39783        60.49462         0.62562
C         52.64010        62.65060         1.01887
C         51.33515        63.37999         0.74466
C         52.58509        65.55516         0.73614
C         51.32353        64.77879         0.65943
C         52.57806        66.95810         0.17953
C         51.31507        67.67966         0.55597
C         52.58176        69.79711         0.51339
C         51.33752        69.09631         0.68802
C         52.49250        71.25248         0.27683
C         51.29460        71.97058         0.75732
C         52.46204        74.13391         0.33394
C         51.28351        73.43077         0.70965
C         53.86458        46.43507         0.68519
C         55.15667        48.50500         0.26466
C         53.91248        47.81397         0.41506
C         55.20796        49.83989        -0.14238
C         53.94945        50.49800        -0.53008
C         55.22155        52.73608        -0.45554
C         53.96226        52.02788        -0.68783
C         55.19140        54.15443        -0.28742
C         53.93063        54.85113        -0.25654
C         55.13106        56.98549         0.01956
C         53.90685        56.26085        -0.06787
C         55.11865        58.40876         0.12843
C         53.87057        59.10980         0.24955
C         55.09813        61.24767         0.35406
C         53.85235        60.51518         0.43220
C         55.10365        62.66258         0.35592
C         53.77989        63.36915         0.28006
C         55.11215        65.57103         0.35379
C         53.87352        64.82632         0.66535
C         55.07765        67.01088         0.42211
C         53.86093        67.71015         0.44690
C         55.08307        69.93918         0.61549
C         53.80630        69.13638         0.44945
C         55.05249        71.32829        -0.00233
C         53.73434        72.01511        -0.05265
C         54.88480        74.17315        -0.16790
C         53.70730        73.49585         0.05994
C         56.41016        50.59616        -0.23402
C         57.75280        52.70530        -0.46453
C         56.42273        51.98759        -0.38287
C         57.69150        54.18669        -0.13599
C         56.40706        54.87477        -0.11968
C         57.59684        57.03137         0.13579
C         56.37922        56.28798         0.01916
C         57.58268        58.41599         0.11238
C         56.34272        59.12359         0.12089
C         57.52633        61.29688        -0.05146
C         56.32879        60.55882         0.16961
C         57.51131        62.68720        -0.03152
C         56.29126        63.39355         0.18436
C         57.55589        65.56511         0.14496
C         56.28763        64.85691         0.17204
C         57.54633        67.01475         0.27014
C         56.33553        67.73107         0.36867
C         57.50493        69.85221         0.00893
C         56.32717        69.15479         0.29832
C         57.45668        71.24740        -0.38932
C         56.19430        71.99284        -0.35465
C         57.37087        74.26721        -0.19149
C         56.14196        73.50743        -0.68837
C         58.85258        54.86186         0.07900
C         60.05709        57.05607        -0.26360
C         58.90778        56.32991         0.40051
C         60.05969        58.39785        -0.34871
C         58.88533        59.19113         0.19798
C         60.03712        61.33833        -0.42319
C         58.75425        60.54456        -0.51763
C         60.02540        62.70793        -0.32476
C         58.72638        63.45612        -0.49210
C         60.03526        65.55129         0.36253
C         58.74138        64.87151         0.01208
C         60.01164        67.02722         0.01885
C         58.77766        67.72951         0.11428
C         59.96653        69.83542        -0.30693
C         58.74577        69.13983        -0.07716
C         59.93382        71.25930        -0.60695
C         58.62799        71.78430        -0.90339
C         59.94010        74.34557        -0.32208
C         58.59457        73.95285        -0.69133
C         61.21208        59.15099        -0.98717
C         62.46589        61.30942        -0.67686
C         61.27866        60.61899        -0.60953
C         62.52300        62.74121        -0.53289
C         61.26770        63.46063        -0.31231
C         62.56131        65.59579        -0.02165
C         61.26766        64.82218        -0.11414
C         62.42993        66.97026        -0.67969
C         61.19586        67.72377        -0.23699
C         62.42390        69.90723        -0.65527
C         61.17385        69.13088        -0.34547
C         62.35657        71.34474        -0.09136
C         61.07423        72.06997        -0.52469
C         62.36788        74.21471        -0.05378
C         61.05030        73.52056        -0.39578
C         63.71765        63.43882        -0.66270
C         64.90734        65.60288        -0.84329
C         63.77728        64.86878        -0.56106
C         64.92677        67.06032        -0.73279
C         63.71510        67.73877        -0.54992
C         64.90675        69.94351        -0.62296
C         63.68865        69.18767        -0.16697
C         64.83939        71.35884        -0.71729
C         63.62533        72.07644        -0.46442
C         64.76614        74.19041        -0.84731
C         63.61126        73.47921        -0.50305
C         66.12612        67.80545        -0.85693
C         67.27366        69.97520        -1.23024
C         66.11304        69.23797        -0.89314
C         67.24178        71.38689        -1.31969
C         66.01852        72.08772        -1.06544
C         67.16131        74.21663        -1.49704
C         65.97819        73.51171        -1.14763
C         68.40034        72.13643        -1.66577
C         68.34701        73.52675        -1.75209
O         53.98374        51.12019        -1.84854
O         42.82341        70.57084         2.54978
O         44.96464        59.21513        -1.50181
O         53.33153        65.28587         1.97047
O         27.28819        67.27582         1.37846
O         58.59609        72.93823        -1.68176
O         35.18934        70.26814         2.46272
O         46.59682        42.85746        -1.29811
O         36.66951        55.75695        -2.34823
O         52.86072        71.54880        -1.15325
O         31.08935        63.34259        -2.30292
O         33.71364        68.12701         1.85960
O         29.46123        67.68838        -1.67651
O         47.29017        54.78032        -2.17040
O         48.44571        71.30649         2.93926
O         41.81523        62.92532         2.09691
O         27.58805        71.60613        -1.34033
O         43.74671        38.93951         1.96063
O         50.01089        45.01417         2.18347
O         46.70207        58.31499         1.73602
O         55.15249        70.21524         2.06886
H         55.26257        69.35394         2.52618
O         33.12844        61.72421        -2.72660
H         32.40780        62.34093        -3.01634
O         39.30284        65.16168        -1.57352
H         38.64765        64.56578        -2.03668
O         62.27260        71.26061         1.35430
H         62.42217        72.15472         1.72357
O         38.60855        63.47818         1.63593
H         38.84813        62.58462         1.99658
O         27.71975        69.97367         2.00670
H         27.61430        69.03830         2.30434
O         58.54379        60.26205        -1.93838
H         58.45887        61.13255        -2.38848
O         41.46818        59.73741        -2.09939
H         42.36449        60.07099        -2.32202
O         38.07269        62.91890        -1.99437
H         38.89382        62.40090        -2.18165
O         40.33008        70.25354        -0.84790
H         40.07042        69.43295        -1.33473
O         58.56718        63.54905        -1.96942
H         57.85178        64.19729        -2.14626
O         56.08336        73.63927        -2.13623
H         55.27792        73.17217        -2.44307
O         43.86494        42.42258        -1.61786
H         43.78637        41.55211        -2.06920
O         31.53507        56.44118        -3.18469
H         31.54785        57.40189        -3.42801
O         58.74362        52.05178         0.33651
H         58.49233        52.14866         1.27744
O         49.40139        73.74139         3.29121
H         49.25206        72.92491         3.81818
O         43.94541        72.21780        -0.53516
H         44.66001        72.82548        -0.81860
O         42.77967        52.78086         1.49044
H         42.01292        53.33871         1.77488
O         24.39019        72.06565        -2.35061
H         25.31606        72.34849        -2.51481
O         62.53773        69.97733        -2.10121
H         61.78573        70.51108        -2.43666
O         39.12740        71.87449         3.12208
H         38.26475        72.20923         3.48461
O         32.96746        49.98350        -1.14623
H         33.19499        50.03740        -2.09691
O         40.64446        62.80868        -1.36586
H         40.58726        63.75219        -1.66041
O         36.30850        59.09113         1.33607
H         35.52682        59.63456         1.57389
O         44.88713        54.05271        -2.51791
H         45.75831        54.12161        -2.97879
O         49.11331        58.92335         2.41181
H         48.20157        58.85003         2.78306
O         62.24557        66.74340        -2.11077
H         62.33067        67.61641        -2.55458
O         62.36497        75.55783        -0.54209
H         62.25525        75.53111        -1.51453
O         52.52504        66.76295        -1.27865
H         52.46861        67.65089        -1.69217
O         50.27774        52.83166        -2.45372
H         51.15374        53.20164        -2.69421
O         63.67191        69.17231         1.29507
H         64.41034        68.60127         1.59392
O         40.74338        54.32587        -2.30618
H         39.97741        54.04559        -2.84908
O         32.00636        68.27496        -1.93958
H         31.15063        68.39407        -2.41531
O         32.51425        62.32965         0.86353
H         32.67079        63.08939         1.46319
O         42.70998        67.05767         2.80611
H         42.61086        67.99406         3.08587
O         29.06745        73.73900         2.22217
H         28.37184        73.16555         2.60824
O         59.15366        59.45228         1.59721
H         59.25629        58.57126         2.02946
O         51.32956        48.26680         2.22590
H         51.93789        47.65707         2.69632
O         37.88747        49.78620        -2.41778
H         37.87279        50.69631        -2.78451
O         30.34395        75.61153         0.80351
H         30.13010        75.52484         1.75815
O         41.09517        54.90773         1.29038
H         41.61382        55.58508         1.77441
O         53.39244        63.35505        -1.12738
H         54.06387        63.85273        -1.63915
O         59.14787        56.46572         1.85511
H         58.42765        55.98298         2.31404
O         47.55899        65.62162        -1.27366
H         48.40811        65.99965        -1.58791
O         61.04589        59.08814        -2.41890
H         60.14357        59.44592        -2.60804
O         52.88669        62.68032         2.44209
H         52.96463        63.62981         2.70709
O         39.17342        68.83017         2.37066
H         39.23856        69.67295         2.87869
O         62.81020        65.84072         1.40385
H         63.07254        64.98553         1.80652
O         39.00585        68.04920        -1.23801
H         39.12274        67.15387        -1.64860
O         36.35411        69.55499        -0.97547
H         37.16159        69.19939        -1.41561
O         31.60765        59.27347        -3.09246
H         32.28508        59.94731        -3.34738
O         46.57918        73.34720         3.49444
H         47.26652        72.66705         3.69686
O         42.78267        39.69975        -1.50993
H         41.92366        39.92177        -1.92839
O         36.54201        72.29342         3.07778
H         36.15403        71.48240         3.48686
O         39.94625        61.16865         1.86939
H         40.72564        61.58236         2.32876
O         40.16466        45.87430         2.12996
H         40.88272        45.31112         2.49131
O         44.11751        43.15933         1.95566
H         44.12852        43.99367         2.47039
O         60.11356        65.51896         1.83628
H         60.99596        65.90039         2.06843
O         44.92200        60.94842         2.42030
H         45.54736        61.50720         2.92910
O         46.54348        38.88798        -1.26271
H         46.67328        39.73791        -1.73655
H         22.83846        75.23684        -0.26825
H         25.26651        75.28324        -0.00853
H         27.66884        75.31389         0.48391
H         30.25466        74.39197        -0.85844
H         32.84383        75.26396         0.54969
H         35.28647        75.20086         0.62507
H         37.78727        75.21439         0.80790
H         40.19922        75.28173         1.23121
H         42.69768        75.26837         1.68292
H         45.11987        75.16774         2.17213
H         47.70098        75.19904         1.66361
H         50.09005        75.20719         0.99235
H         52.43091        75.23401         0.33325
H         54.88500        75.27383        -0.13118
H         57.25417        75.01728         0.60299
H         60.11494        75.38443         0.00282
H         62.42552        74.29588         1.07128
H         64.73438        75.28953        -0.87017
H         67.13571        75.31383        -1.56086
H         21.97491        69.34368        -0.57823
H         20.73252        71.48820        -0.66039
H         20.73951        73.96464        -0.56207
H         24.46253        65.05378        -0.42894
H         23.19181        67.22534        -0.54925
H         26.97769        60.80691        -0.64194
H         25.71282        62.92798        -0.43672
H         29.45725        56.54180        -1.00256
H         28.22005        58.66752        -0.72629
H         31.90066        52.26162        -0.87476
H         30.68016        54.36931        -1.35120
H         34.37925        48.01799        -0.40258
H         33.69332        50.56510         0.68174
H         36.81973        43.73842         0.27718
H         35.59634        45.87391        -0.10024
H         39.24230        39.45106         0.65697
H         38.03020        41.59082         0.43096
H         41.73414        35.15723         1.00900
H         40.45642        37.30234         0.74637
H         45.09408        31.93766         2.09025
H         42.96080        33.12757         1.62280
H         47.26765        33.14412         2.01691
H         48.53630        35.26567         1.66704
H         49.78892        37.33232         1.25306
H         51.05572        39.44819         1.06720
H         52.33081        41.55110         0.82533
H         53.57813        43.75213         0.79891
H         54.80647        45.87136         0.75632
H         56.09174        47.96683         0.48160
H         57.37263        50.08337        -0.08583
H         58.10730        52.61174        -1.53018
H         59.80121        54.30242         0.07311
H         60.91495        56.46736        -0.62499
H         62.18302        58.64771        -0.74771
H         63.40136        60.76885        -0.88797
H         64.64156        62.88719        -0.89596
H         65.82899        65.09124        -1.16054
H         67.07587        67.27802        -1.02828
H         68.21219        69.44139        -1.44156
H         69.34266        71.60671        -1.86630
H         69.25298        74.08803        -2.02134
