         404
 CSIRO Nanostructure Databank - Neutral Graphene Oxide Data Set
C          1.39180         3.46251        -1.70654
C          0.17248         4.10699        -1.53252
C          1.30347         6.25791        -1.28754
C          0.11847         5.48900        -1.32602
C          1.27330         7.70771        -1.07841
C          0.09572         8.45299        -1.20687
C          1.26172        10.52870        -0.61999
C          0.09908         9.83547        -1.03529
C          1.29739        11.99831        -0.59062
C          0.18413        12.73138        -1.06165
C          1.33088        14.83965        -0.67295
C          0.19057        14.11239        -1.07555
C          1.31413        16.28882        -0.69143
C          0.16777        17.05116        -0.89005
C          1.25239        19.19355        -0.32944
C          0.13576        18.45341        -0.71210
C          1.21530        20.60428         0.00029
C          0.00497        21.33774        -0.10895
C          1.13371        23.43712         0.40485
C         -0.03821        22.70439         0.07036
C          1.12389        24.86805         0.53950
C         -0.09443        25.64100         0.45022
C          1.15832        27.74132        -0.03676
C         -0.11558        26.98492         0.24852
C          1.13420        29.24462         0.22224
C         -0.05183        29.98047         0.25742
C          1.15094        32.11198         0.21350
C         -0.04770        31.37919         0.32104
C          1.16565        33.58859         0.24578
C         -0.00318        34.32762         0.53354
C          1.22604        36.43271         0.47316
C          0.02543        35.71171         0.64305
C          1.27265        37.85525         0.76503
C          3.86074         3.54317        -1.82770
C          2.60527         4.19903        -1.66392
C          3.79651         6.42668        -1.51697
C          2.54285         5.60286        -1.43670
C          3.69914         7.69017        -0.70334
C          2.47730         8.38944        -0.67743
C          3.59699        10.46321         0.26659
C          2.41763         9.78392        -0.32114
C          3.55266        11.96864         0.55074
C          2.45421        12.70479        -0.19192
C          3.67944        14.85633         0.17579
C          2.49151        14.12058        -0.24912
C          3.72097        16.22200         0.06142
C          2.58964        16.98359        -0.49814
C          3.71891        19.20236         0.26398
C          2.55164        18.51495        -0.31770
C          3.67707        20.59846         0.49626
C          2.40400        21.30903         0.37636
C          3.53520        23.43399         1.06904
C          2.34560        22.70629         0.58365
C          3.55356        24.90247         0.92817
C          2.36224        25.57123         0.68998
C          3.56982        27.85180         0.85807
C          2.31067        27.06733         0.68657
C          3.61867        29.25884         0.39946
C          2.37379        29.95866         0.21985
C          3.61047        32.07556        -0.25488
C          2.35667        31.38150         0.10025
C          3.61466        33.58373        -0.30223
C          2.36606        34.30953         0.03111
C          3.66832        36.46959        -0.05377
C          2.40436        35.71952         0.14323
C          3.68536        38.00601         0.26137
C          2.41820        38.57959         0.74214
C          6.32313         3.53871        -1.65199
C          5.08775         4.22574        -1.64085
C          6.25760         6.28650        -1.04399
C          5.07091         5.63493        -1.33368
C          6.23813         7.63166        -0.42416
C          4.92282         8.29958        -0.18371
C          6.17932        10.51087         0.14225
C          4.91782         9.74237         0.22075
C          6.10647        11.94423         0.36840
C          4.91884        12.64593         0.48222
C          6.15584        14.88226         0.58848
C          4.85894        14.13081         0.84472
C          6.15912        16.23267         0.46460
C          4.87008        16.98982         0.67683
C          6.12178        19.19629         0.53733
C          4.92047        18.48291         0.39769
C          6.13373        20.60126         0.72812
C          4.88516        21.27261         0.80786
C          6.15137        23.43185         1.32787
C          4.84859        22.67983         1.23570
C          6.13716        24.93675         1.20674
C          4.86978        25.61614         0.70213
C          6.15226        27.81746         0.88619
C          4.85252        27.09609         1.06475
C          6.08963        29.22939         0.46132
C          4.87367        29.90310         0.29174
C          6.18068        32.07309         0.07684
C          4.91550        31.31836        -0.16498
C          6.11972        33.54003         0.29533
C          4.92202        34.31759        -0.12808
C          6.14762        36.47222         0.23522
C          4.94429        35.77689         0.11000
C          6.17030        37.92203         0.40027
C          4.96827        38.61363         0.58317
C          8.78522         3.52537        -1.34527
C          7.54480         4.20618        -1.39200
C          8.71225         6.33601        -0.86983
C          7.51475         5.61334        -1.10018
C          8.67798         7.77162        -0.64032
C          7.46826         8.44470        -0.42373
C          8.65345        10.59713        -0.15709
C          7.39863         9.85718        -0.13836
C          8.67841        11.96884         0.15132
C          7.41857        12.63723         0.54894
C          8.69985        14.86950         0.46698
C          7.43236        14.13945         0.67948
C          8.69844        16.27432         0.39906
C          7.41148        16.98629         0.22142
C          8.64816        19.22703         0.49048
C          7.39224        18.49105         0.30244
C          8.65247        20.59538         0.73660
C          7.39785        21.31842         0.86004
C          8.63794        23.45540         0.96603
C          7.41704        22.70887         1.05995
C          8.62473        24.89244         0.85895
C          7.40932        25.63122         0.89348
C          8.62588        27.72214         0.57442
C          7.41181        27.03466         0.71457
C          8.62996        29.17737         0.31627
C          7.34534        29.93131         0.16813
C          8.61526        32.11511         0.74840
C          7.35148        31.41146         0.26641
C          8.66283        33.57387         0.39071
C          7.40024        34.30942         0.47179
C          8.62531        36.43364         0.22842
C          7.40240        35.76622         0.27613
C          8.64766        37.88454         0.28252
C          7.43386        38.57983         0.44852
C         11.21382         3.51034        -0.88839
C          9.97952         4.20851        -1.04108
C         11.16552         6.33672        -0.59945
C          9.94910         5.63733        -0.85624
C         11.16441         7.77286        -0.53644
C          9.91858         8.49932        -0.59273
C         11.11441        10.66745        -0.47981
C          9.87405         9.89707        -0.43211
C         11.11729        12.06651        -0.08129
C          9.91689        12.71218         0.19105
C         11.13068        14.89093         0.40485
C          9.92173        14.16177         0.39013
C         11.13684        16.30085         0.50256
C          9.90234        16.99808         0.41154
C         11.17942        19.20991         0.56793
C          9.88853        18.47122         0.28648
C         11.12574        20.63157         0.93212
C          9.91500        21.31551         0.89533
C         11.09338        23.48477         0.73222
C          9.88955        22.76684         0.91316
C         11.08244        24.88479         0.51106
C          9.85138        25.58962         0.61999
C         11.09172        27.69702         0.30929
C          9.86150        27.01390         0.51635
C         11.15419        29.15467         0.47748
C          9.87535        29.93533         0.61571
C         11.08370        32.05215         0.19069
C          9.89554        31.39432         0.40465
C         11.10680        33.51459         0.08294
C          9.85061        34.24563         0.18404
C         11.08060        36.38311         0.03409
C          9.86414        35.69822         0.13907
C         11.10944        37.83310         0.07031
C          9.89698        38.54622         0.22012
C         13.62289         3.47669        -0.28137
C         12.38946         4.17522        -0.52879
C         13.55507         6.29256        -0.00676
C         12.36885         5.61020        -0.40045
C         13.54036         7.70757         0.10551
C         12.37301         8.43960        -0.25277
C         13.58446        10.59402         0.29384
C         12.45724         9.89619        -0.35264
C         13.62006        11.99368         0.39946
C         12.43063        12.75842        -0.04366
C         13.66071        14.86966         0.78599
C         12.43565        14.22072         0.26400
C         13.62052        16.29789         0.87548
C         12.39138        16.98319         0.72508
C         13.72462        19.18484         0.98854
C         12.35794        18.40937         0.98060
C         13.67142        20.60880         0.68770
C         12.42692        21.32008         1.05374
C         13.57663        23.43597         0.17811
C         12.40400        22.82512         0.83564
C         13.50689        24.86132        -0.08558
C         12.29942        25.57341         0.18521
C         13.50767        27.70361        -0.22878
C         12.29477        26.99347         0.07410
C         13.51698        29.14193        -0.25696
C         12.35053        29.88669         0.05635
C         13.52588        31.97798        -0.33553
C         12.32461        31.29605        -0.01257
C         13.60644        33.46944        -0.09667
C         12.28685        34.20307        -0.11667
C         13.50686        36.35541        -0.33493
C         12.31246        35.65340        -0.14181
C         13.55546        37.79291        -0.26196
C         12.34733        38.50260        -0.03888
C         16.02423         3.45096         0.36637
C         14.76309         4.13188         0.15387
C         15.87052         6.25130         0.81545
C         14.74200         5.57129         0.32737
C         15.85351         7.65850         0.96078
C         14.69101         8.38781         0.59857
C         15.65608        10.42791         1.56920
C         14.64590         9.80311         0.79752
C         15.60817        11.83216         1.73866
C         14.70673        12.66441         1.05237
C         16.08999        14.86882         1.18816
C         14.82468        14.13941         1.06861
C         16.08833        16.24717         0.87902
C         14.87835        17.00401         0.86820
C         16.08715        19.12316         0.26870
C         14.91444        18.41296         0.70824
C         16.01809        20.52244        -0.05885
C         14.78053        21.26015         0.15427
C         15.77497        23.29572        -0.95021
C         14.69122        22.67893        -0.14929
C         15.77027        24.79168        -1.11108
C         14.64093        25.55671        -0.54794
C         15.91758        27.68735        -0.83393
C         14.67976        26.98199        -0.57082
C         15.93884        29.10297        -0.78232
C         14.71409        29.83489        -0.57575
C         15.93904        31.94152        -1.02805
C         14.69244        31.25390        -0.62051
C         15.95835        33.43460        -1.14913
C         14.66732        34.16587        -0.92532
C         16.01467        36.32383        -0.81836
C         14.70579        35.65043        -0.83029
C         16.02411        37.73831        -0.62099
C         14.79583        38.44677        -0.42187
C         18.40756         3.42806         0.96605
C         17.12690         4.08835         0.87379
C         18.31280         6.27330         1.44520
C         17.01313         5.48727         1.43837
C         18.29511         7.68310         1.58943
C         16.98486         8.34683         1.54575
C         18.72582        10.77639         2.04867
C         16.77299         9.63867         2.00136
C         18.75468        12.17973         1.83255
C         17.56150        12.98386         2.01545
C         18.66058        14.98875         1.32223
C         17.38953        14.23611         1.44894
C         18.62269        16.43160         0.92882
C         17.32922        16.91203         0.31304
C         18.48840        19.08546        -0.24273
C         17.30053        18.41730         0.16853
C         18.38230        20.43742        -0.71681
C         17.17414        21.14868        -0.60631
C         18.30722        23.33542        -1.37716
C         17.06771        22.53728        -1.15054
C         18.31556        24.70621        -1.45504
C         17.07099        25.51877        -1.39541
C         18.35234        27.66078        -1.16918
C         17.13648        26.97694        -1.10447
C         18.40776        29.08272        -0.98140
C         17.18619        29.80929        -0.86845
C         18.42832        31.94973        -0.94139
C         17.21810        31.22880        -0.88866
C         18.43980        33.40665        -0.95732
C         17.23440        34.14945        -0.99152
C         18.47724        36.27373        -0.81443
C         17.22549        35.58035        -0.87925
C         18.48323        37.70386        -0.71386
C         17.26339        38.41250        -0.60996
C         19.54287         4.12344         1.24924
C         20.74186         6.28290         1.52787
C         19.53359         5.56519         1.42196
C         20.73098         7.67039         1.58451
C         19.52938         8.40957         1.58862
C         20.71564        10.47356         0.75249
C         19.65102         9.88652         1.47949
C         20.84627        11.85720         0.63160
C         19.88254        12.73232         1.16572
C         21.10107        14.93398         0.52623
C         19.97711        14.20938         1.15425
C         21.07975        16.26238         0.28722
C         19.88626        17.11599         0.48176
C         20.91174        19.09753        -0.68802
C         19.75897        18.41998        -0.22116
C         20.84199        20.35056        -1.24283
C         19.56471        21.05417        -1.36104
C         20.81760        23.31922        -1.68002
C         19.54793        22.56523        -1.65086
C         20.83281        24.66299        -1.68359
C         19.57825        25.44275        -1.73401
C         20.85921        27.68485        -1.33851
C         19.59700        26.95805        -1.56895
C         20.86596        29.01323        -1.06722
C         19.64630        29.78777        -0.98365
C         20.87927        31.95982        -0.90590
C         19.66377        31.21651        -0.92975
C         20.88563        33.33982        -0.88116
C         19.68873        34.10125        -0.90250
C         20.91620        36.28362        -0.83445
C         19.70812        35.55202        -0.85766
C         20.91788        37.68159        -0.75878
C         19.72740        38.39106        -0.69134
O         19.55976        14.76844         2.44310
O         14.29368        34.91962        -2.09542
O          4.14780         9.82994         1.48290
O          5.58616         7.51550         0.90559
O         12.98938        18.82681         2.20747
O          8.09840        29.46202        -1.03453
O          7.51613        13.27826         1.87465
O          5.57254        27.52562         2.24024
O          4.37181        34.05275        -1.46235
O         10.75353        18.95506        -0.81062
O         10.59958        29.53369         1.81152
O         19.50203        26.32781        -2.90392
O         17.71032        10.24327         2.85347
O         15.86017        32.59663        -2.35677
O         16.48112        12.38441         2.67191
O         16.11200        25.21420        -2.46559
O          3.98926        22.91979         2.38743
O         11.99982        10.41839        -1.62774
O          2.61344        27.65033         1.98343
O          7.37229        17.77686        -1.01617
O          6.15576        24.30862         2.50783
O          6.54097        33.90812         1.65906
O          2.92852        17.88935        -1.60033
O         19.35372        21.59615        -2.72656
O         12.61753        22.24564         2.17037
O          4.25697        31.50765        -1.45294
O         19.32410        17.27495         1.85929
O         12.65418        13.72024        -1.12843
O         16.05121        22.61069        -2.21077
O          3.62129        37.47168        -1.10500
O         16.64533         5.30483         2.85255
H         16.60427         6.19581         3.26072
O          3.12275        12.08003         1.95727
H          3.53452        11.30716         2.41809
O          4.63036        14.22756         2.28510
H          3.93360        13.54826         2.49635
O          5.04415        25.57380        -0.75808
H          4.25307        25.96822        -1.18543
O          4.62394        16.97137         2.12360
H          4.60313        16.01836         2.41191
O          3.87300         6.90684        -2.93346
H          3.79333         6.11349        -3.50612
O         14.12222        33.59466         1.27789
H         13.46474        33.18897         1.88312
O         17.40767        16.38530        -1.06516
H         16.59487        16.66011        -1.54125
O          1.45613        27.58191        -1.46312
H          0.75180        28.03425        -1.97338
O          8.51933        32.05258         2.21369
H          7.78191        32.66222         2.46527
H          1.42693         2.37563        -1.86822
H         -0.76068         3.52697        -1.55791
H         -0.85902         5.97040        -1.18626
H         -0.84127         7.96146        -1.50242
H         -0.83874        10.37703        -1.20994
H         -0.71913        12.21371        -1.40661
H         -0.70377        14.64230        -1.42817
H         -0.78887        16.55441        -1.10323
H         -0.84226        18.94462        -0.80646
H         -0.92413        20.81606        -0.37400
H         -0.99497        23.22742        -0.05881
H         -1.05406        25.11378         0.55663
H         -1.08568        27.49910         0.18644
H         -1.02306        29.46624         0.25588
H         -1.01256        31.89866         0.38725
H         -0.95694        33.80855         0.69628
H         -0.89681        36.25673         0.89075
H          0.33915        38.32748         1.10640
H          3.87308         2.46106        -2.02400
H          2.42136        39.62135         1.09679
H          6.33275         2.45526        -1.84346
H          4.98608        39.65167         0.94837
H          8.81208         2.43891        -1.51714
H          7.45532        39.67396         0.56267
H         11.22279         2.41673        -1.01036
H          9.92491        39.64536         0.26427
H         13.64300         2.38489        -0.41935
H         12.37048        39.60168         0.00638
H         16.10457         2.39873         0.05034
H         14.83388        39.54318        -0.33855
H         18.45709         2.34940         0.75338
H         17.28519        39.50582        -0.49060
H         20.51342         3.60731         1.28746
H         21.69762         5.73980         1.53395
H         21.68908         8.20659         1.63316
H         21.46673         9.82979         0.27402
H         21.71347        12.26430         0.09351
H         22.00253        14.35949         0.26492
H         21.96228        16.71447        -0.18876
H         21.89173        18.60463        -0.62917
H         21.74341        20.80016        -1.67860
H         21.76580        22.76672        -1.73010
H         21.79155        25.19555        -1.75166
H         21.81301        27.15359        -1.46066
H         21.83364        29.51892        -0.94658
H         21.84347        31.43475        -0.89506
H         21.85662        33.85158        -0.84610
H         21.88172        35.76279        -0.87827
H         21.87675        38.21842        -0.74541
H         19.73519        39.48802        -0.62097
