         276
 CSIRO Nanostructure Databank - Neutral Graphene Oxide Data Set
C        -11.00893         0.66302         0.43772
C         -9.84778         1.47994         0.70413
C         -8.66095         0.87873         1.44467
C         -7.36656         1.55423         1.00367
C         -6.00266         0.92913         1.30514
C         -4.98874         1.33124         0.16490
C         -3.57841         0.76085         0.34468
C         -2.53023         1.37990        -0.59479
C         -1.15032         0.74492        -0.36728
C          0.11556         1.50037        -0.65278
C          1.37455         0.76154        -0.95394
C          2.55473         1.44182        -1.16465
C          3.84756         0.75262        -1.18263
C          5.05007         1.41740        -0.97720
C          6.27940         0.72638        -0.61879
C          7.49825         1.36602        -0.48305
C          8.68708         0.67831         0.20118
C          8.45536         0.91120         1.76455
C          9.54414         0.20081         2.53125
C         -9.85297         2.79997         0.34851
C         -8.65585         3.61596         0.42750
C         -7.40761         2.87109         0.64628
C         -6.18820         3.56327         0.16285
C         -4.88988         2.85225         0.29814
C         -3.60919         3.61776         0.21334
C         -2.47951         2.92136        -0.48935
C         -1.23276         3.67721        -0.80865
C          0.03095         2.92885        -1.12066
C          1.31238         3.70249        -1.34429
C          2.56582         2.93460        -1.02946
C          3.85970         3.66088        -1.00519
C          5.12092         2.87764        -1.36528
C          6.42420         3.67574        -1.10719
C          7.66569         2.77951        -0.90831
C          7.55631         3.28977         1.70738
C          8.54155         2.39909         1.99451
C         -8.65823         4.96640         0.19789
C         -7.40720         5.80505         0.35073
C         -6.19891         5.01461        -0.16905
C         -4.89125         5.74839        -0.46306
C         -3.63319         5.15695         0.29358
C         -2.39567         5.86558        -0.22185
C         -1.11818         5.12678        -0.43108
C          0.07939         5.87469        -0.91729
C          1.31853         5.18358        -1.34074
C          2.56160         5.90826        -0.87158
C          3.92299         5.17091        -1.22846
C          5.04609         5.73616        -0.31583
C          6.49087         5.13644        -0.52009
C          7.21554         5.55483         0.75458
C          7.78732         4.73357         1.67910
C         -7.42468         7.20546        -0.23918
C         -6.26371         7.91366        -0.35171
C         -4.94044         7.24042        -0.01379
C         -3.69661         7.97363        -0.54074
C         -2.42731         7.21697        -0.25715
C         -1.37108         8.04977        -0.90390
C         -0.03209         7.35851        -1.14807
C          1.26227         8.12327        -1.15679
C          2.64517         7.40096        -1.31118
C          3.81840         8.06695        -0.55789
C          5.15628         7.28426        -0.44060
C          6.08851         7.77393         0.65754
C          7.12196         6.97390         1.07395
C         -6.18698         9.36377        -0.42684
C         -5.02881        10.05578        -0.20365
C         -3.72509         9.42421        -0.14796
C         -2.53924        10.09764        -0.02650
C         -1.27136         9.44210        -0.31772
C         -0.09789        10.12217        -0.26770
C          1.26519         9.61150        -0.68282
C          2.22767         9.75210         0.45230
C          3.59651         9.33688         0.29556
C          4.63968         9.68092         1.28535
C          5.81075         9.00501         1.37173
C        -10.96170        -0.69366         0.45790
C         -9.75309        -1.42346         0.79257
C         -8.59228        -0.66246         1.35769
C         -7.27393        -1.37835         1.44099
C         -5.96881        -0.60333         1.51291
C         -4.65548        -1.34633         1.37030
C         -3.39273        -0.60962         0.92992
C         -2.03509        -1.34545         0.74734
C         -1.24219        -0.79300        -0.48279
C          0.11891        -1.47905        -0.59430
C          1.18177        -0.69613        -1.32981
C          2.51720        -1.44839        -1.44663
C          3.76798        -0.72986        -1.01981
C          4.98056        -1.51308        -0.59711
C          6.28769        -0.77120        -0.69674
C          7.58234        -1.51523        -0.62843
C          8.86785        -0.83550        -0.16947
C          9.49400        -1.66153         0.94993
C         10.02461        -0.98730         2.13176
C         -9.70558        -2.77101         0.60965
C         -8.51776        -3.61240         1.00231
C         -7.18821        -2.76579         0.80706
C         -5.97681        -3.58264         1.24855
C         -4.66170        -2.86946         1.31048
C         -3.49578        -3.54113         0.62380
C         -2.15415        -2.87801         0.60175
C         -1.01610        -3.62274        -0.01869
C          0.14499        -2.83914        -0.55519
C          1.41240        -3.61311        -0.70631
C          2.57748        -2.94745        -1.36812
C          3.94645        -3.67300        -1.47816
C          4.96868        -3.06674        -0.49538
C          6.30211        -3.75870        -0.73810
C          7.59679        -3.03787        -0.66017
C          8.86962        -3.77526        -0.24760
C          9.53521        -3.01244         0.87171
C         -8.40386        -4.86355         0.17715
C         -7.08489        -5.56700         0.00176
C         -6.09545        -5.09715         1.05875
C         -4.71869        -5.77231         0.87721
C         -3.58300        -4.99964         0.27694
C         -2.47799        -5.81070        -0.45179
C         -1.15705        -5.02758        -0.56921
C          0.11854        -5.80302        -0.71521
C          1.42002        -5.08838        -0.46879
C          2.69945        -5.90801        -0.57003
C          3.83430        -5.22970        -1.38147
C          5.11495        -5.89550        -0.91217
C          6.24257        -5.22667        -0.53740
C          7.45822        -5.94668        -0.15309
C          8.63977        -5.22871         0.09999
C         -7.11483        -7.08946         0.05766
C         -6.04618        -7.85832         0.42738
C         -4.71938        -7.26052         0.79674
C         -3.42406        -8.06024         0.58320
C         -2.27794        -7.25412        -0.02037
C         -1.14525        -7.94842        -0.36761
C          0.12126        -7.29614        -0.73041
C          1.26402        -7.99410        -1.02479
C          2.54370        -7.22421        -1.36471
C          3.88164        -7.94691        -1.24071
C          5.04861        -7.34074        -0.89034
C          6.23459        -8.18981        -0.43929
C          7.42604        -7.34499        -0.07038
C         -6.07527        -9.29461         0.18397
C         -4.94315        -9.99320        -0.10230
C         -3.62797        -9.39397        -0.09742
C         -2.50027       -10.06869        -0.45792
C         -1.19903        -9.41567        -0.44503
C         -0.07538       -10.13136        -0.70205
C          1.27876        -9.53691        -0.95964
C          2.25777        -9.93722         0.16011
C          3.58474        -9.78200        -0.03701
C          4.69446        -9.79007         0.91272
C          5.83624        -9.08042         0.75425
O          3.21301         3.32192         0.25408
O          7.08518        -1.04610        -1.91891
O         -5.15047        -0.92255         2.67430
O         -4.91377         7.29448         1.38485
O         -2.28248         3.50799        -1.81831
O          0.54030         3.10616        -2.46494
O          2.39865        -2.26924        -2.64190
O          2.46062        -6.68810        -2.73211
O         -0.39277         1.30361         0.72299
O          8.73395         3.22354        -1.30865
O          0.53887         7.88281        -2.38443
O         -4.01854        -3.96962        -0.68137
O         -3.18339         0.60407         1.72292
O         -2.05307         8.25955        -2.23281
O          7.07070        -3.48160        -1.95271
O         -4.50297        -6.55123         2.08490
O          3.55792        -5.68745        -2.77051
O         -0.14137         5.49756         0.59429
O         -5.28624        -3.38096         2.52288
O          5.30169         2.79866        -2.80177
O         -0.55462        -5.18658        -1.87818
O         -8.10361        -1.26379         2.62467
O         -4.06596         3.10637         1.48873
O         -3.53049         8.01478        -2.01995
O          1.62358        -4.18334         0.66474
O          4.08166        -0.99422         0.42566
O          4.08248         9.37356        -1.10884
O          7.24695         5.66081        -1.60455
O          3.95505        -9.35139        -1.34782
O         -1.18606        -3.58465         1.44358
O         -6.45665         4.04933        -1.22792
O         -1.86770        -1.10692        -1.68805
O         -3.70031         5.51914         1.66420
H         -4.24987         4.85377         2.14586
O         -2.98400         1.07161        -1.91991
H         -2.47663         1.62356        -2.55850
O          4.81000         5.32788         1.05146
H          3.84090         5.41503         1.25028
O          4.51159        -3.38000        -2.75297
H          3.92470        -3.74153        -3.45158
O         -1.22312        -1.06477         1.88349
H         -1.65127        -1.42093         2.68818
O         -2.93967        -8.46450         1.90245
H         -3.19619        -7.75512         2.53709
O         -8.86452         1.22172         2.83516
H         -8.22437         0.69210         3.36148
O          6.57372         4.17217        -2.54040
H          7.42716         3.82419        -2.90603
O          6.25301         2.89819         1.47254
H          5.65926         3.69613         1.46505
O          5.75895         7.54266        -1.72477
H          5.79990         8.51769        -1.84105
O          1.71076        10.37765        -1.82530
H          1.11554        10.14431        -2.57082
O         -7.19960         5.96807         1.77870
H         -6.39243         6.55170         1.89236
O         -8.62669        -3.91787         2.40623
H         -8.60248        -3.05807         2.89249
O         -6.59076        -5.16983        -1.32037
H         -7.08917        -5.66299        -2.00614
O         -5.62616         1.53021         2.54401
H         -4.80046         1.08408         2.85251
O          9.76883        -0.89361        -1.29875
H          9.22052        -0.85130        -2.11360
O          9.91381         1.32913        -0.08922
H         10.34356         0.82504        -0.82026
O          1.65404       -10.08873        -2.23077
H          2.59090        -9.85128        -2.41637
O         -5.55010         0.90537        -1.07242
H         -4.83227         0.89668        -1.75329
O          6.67098        -9.06849        -1.50367
H          5.87881        -9.57804        -1.79067
O         -3.00215        -5.99321        -1.78984
H         -3.15681        -5.10046        -2.17229
O          2.97390         7.51480        -2.69509
H          2.98132         8.47041        -2.91823
O          7.18808         0.35290         2.13223
H          6.51199         1.06624         2.07814
O         -4.63414         5.68332        -1.84908
H         -5.23050         5.00219        -2.24258
O          4.60246        -3.42544         0.84776
H          4.07115        -2.67980         1.22017
O         -6.99789        -2.49682        -0.59259
H         -6.74365        -3.33441        -1.05859
O          2.42376         6.05194         0.58465
H          1.65586         5.50948         0.89177
O          0.62536        -0.56946        -2.67319
H         -0.35147        -0.78348        -2.62279
O          9.74801        -3.82362        -1.40309
H          9.17024        -3.97582        -2.18476
O          3.12615        -6.22029         0.75564
H          2.99692        -5.40786         1.29978
O          4.24863         5.35615        -2.59396
H          4.70058         6.22487        -2.71198
O         -6.67308        -5.59403         2.26995
H         -6.18572        -5.19675         3.02406
H         10.77483        -1.52389         2.73251
H          9.92617         0.67172         3.44948
H          9.55225         2.80706         2.13009
H          8.37993         5.18182         2.49354
H          7.77420         7.34309         1.88356
H          6.55781         9.32832         2.11328
H          4.45499        10.54649         1.93717
H          1.85142         9.98647         1.45864
H         -0.11460        11.17245         0.06370
H         -2.52443        11.17144         0.21559
H         -5.06691        11.15418        -0.13964
H         -7.13208         9.91742        -0.53929
H         -8.39343         7.71343        -0.37350
H         -9.61476         5.48128         0.01766
H        -10.76222         3.24177        -0.08862
H        -11.93254         1.17264         0.12419
H        -11.84747        -1.28171         0.17685
H        -10.60054        -3.28497         0.22479
H         -9.12089        -4.97927        -0.65622
H         -8.02574        -7.59432        -0.30289
H         -7.05682        -9.78527         0.10746
H         -5.01775       -11.05583        -0.37971
H         -2.55597       -11.10526        -0.82414
H         -0.14979       -11.21920        -0.85091
H          1.86336       -10.22597         1.14435
H          4.55115       -10.35679         1.84677
H          6.58478        -9.15487         1.56025
H          8.35444        -7.88119         0.18240
H          9.54154        -5.79951         0.37449
H         10.01119        -3.58621         1.68206
