         346
 CSIRO Nanostructure Databank - Neutral Graphene Oxide Data Set
C          1.22293         1.85177        -0.23546
C          1.27416         3.21887         0.12514
C          2.36751         1.14967        -0.56100
C          2.48617         3.89804         0.18251
C          1.52694         6.29306         0.07757
C          1.66906         7.63338         0.35617
C          2.53037         5.34643         0.67210
C          2.80319         8.17184         1.01368
C          1.59590        10.32965         1.73189
C          1.63818        11.68211         1.86152
C          2.81013         9.53353         1.52759
C          2.84521        12.47061         1.71794
C          1.61427        14.65091         1.91278
C          1.63031        16.04087         2.09563
C          2.79574        13.90460         1.86675
C          2.83009        16.77295         2.16443
C          2.82019        18.20333         2.26435
C          3.63422         1.80081        -0.54711
C          3.67507         3.17211        -0.13743
C          4.84364         1.13751        -0.89111
C          4.93356         3.84312        -0.14839
C          3.90691         5.97791         0.60150
C          4.14197         7.44117         0.98977
C          4.97567         5.16961         0.43125
C          5.04083         8.25606        -0.06403
C          4.10139        10.37150         1.22101
C          4.03426        11.83715         1.29869
C          5.05083         9.77386         0.23277
C          5.25185        12.55694         1.04731
C          4.07471        14.61293         2.06880
C          4.09202        16.09249         2.09115
C          5.36480        13.87672         1.69202
C          5.27526        16.82416         1.97212
C          3.98225        18.92108         2.19049
C          5.24309        18.26628         1.97356
C          6.04423         1.85550        -1.05554
C          6.03328         3.26488        -0.79329
C          7.32140         1.25143        -1.30884
C          7.10718         4.07084        -1.41070
C          6.67114         6.35743        -0.37967
C          6.46154         7.77148        -0.43388
C          7.03328         5.53576        -1.41296
C          7.42320         8.61558        -1.08650
C          6.21861        10.64312        -0.20795
C          6.34556        12.00434         0.37258
C          7.39062        10.00728        -0.84743
C          7.55295        12.77154         0.13382
C          6.62154        14.65715         1.50535
C          6.58026        16.17214         1.74340
C          7.66594        14.11195         0.62835
C          7.68015        16.97636         1.19326
C          6.40693        19.01230         1.76253
C          7.63367        18.40688         1.34696
C          8.51524         1.98600        -1.41309
C          8.45745         3.44195        -1.74578
C          9.76628         1.35592        -1.25677
C          9.79284         4.23008        -2.02323
C          8.73606         6.61680        -2.04722
C          8.65685         8.02990        -1.65189
C          9.80369         5.78901        -1.85558
C          9.81950         8.74997        -1.81548
C          8.49602        10.88555        -1.25862
C          8.61205        12.22946        -0.63591
C          9.78536        10.22072        -1.83088
C          9.80253        12.98253        -0.82661
C          8.77494        14.92610         0.31074
C          8.79278        16.34593         0.62612
C          9.87798        14.34449        -0.38358
C          9.93878        17.14364         0.26884
C          8.78034        19.16692         1.08373
C          9.96580        18.56684         0.56767
C         10.95775         2.09305        -1.10879
C         10.91332         3.58022        -1.19050
C         12.14562         1.44943        -0.75096
C         12.22000         4.31662        -0.99535
C         11.08662         6.54952        -1.48227
C         11.08103         7.98807        -2.08781
C         12.32388         5.66444        -1.58943
C         12.33036         8.86244        -2.18941
C         11.05009        10.98673        -1.77682
C         10.94119        12.41922        -1.49506
C         12.24931        10.30331        -1.86483
C         11.99685        13.29184        -1.79275
C         11.06165        15.12277        -0.57215
C         11.06948        16.51411        -0.25351
C         12.19874        14.56318        -1.21702
C         12.25974        17.28191        -0.64030
C         11.13827        19.31340         0.39265
C         12.29443        18.78595        -0.31654
C         13.39143         2.13008        -0.62396
C         13.47051         3.53670        -0.85405
C         14.57194         1.42133        -0.33053
C         14.73748         4.14793        -0.94308
C         13.59018         6.06630        -1.91481
C         13.66935         8.24461        -2.07486
C         14.80270         5.54794        -1.31640
C         14.74081         8.64951        -1.32767
C         13.52707        10.88089        -1.36028
C         13.85830        12.24694        -1.71676
C         14.72329        10.07170        -0.90676
C         14.86528        12.97142        -1.16771
C         13.51032        15.21094        -1.12010
C         13.53476        16.53989        -0.75775
C         14.84852        14.47304        -1.42748
C         14.77009        17.24886        -0.23219
C         13.61744        19.45960        -0.26790
C         14.79490        18.76396        -0.37214
C         15.86187         2.00794        -0.33561
C         15.95140         3.42239        -0.70804
C         16.90306         1.16679         0.16523
C         17.13271         4.22070        -0.65957
C         15.90873         6.36817        -1.02007
C         15.94124         7.84827        -1.04570
C         17.09780         5.66055        -0.58776
C         17.07357         8.54268        -0.61394
C         16.01907        10.77428        -0.79587
C         16.05935        12.22364        -0.76495
C         17.17747        10.00203        -0.63726
C         17.27474        12.88263        -0.68853
C         15.98182        15.07799        -0.58604
C         16.03665        16.60616        -0.79322
C         17.29183        14.34942        -0.87441
C         17.26937        17.25581        -0.20444
C         16.07872        19.42359        -0.32513
C         17.29298        18.74624        -0.23803
C         18.29045         1.44396         0.05202
C         18.40735         3.61026        -0.49115
C         19.36939         1.06280         0.81895
C         19.46149         4.21912         0.15800
C         18.25556         6.34824        -0.17635
C         18.17856         7.82532         0.11102
C         19.42179         5.64562         0.24938
C         19.51583         8.52585         0.12813
C         18.44373        10.66452        -0.42548
C         18.58521        12.13310        -0.78093
C         19.57947         9.95335        -0.01671
C         19.77191        12.86951        -0.13844
C         18.58195        15.06055        -0.68296
C         18.54435        16.50683        -0.27830
C         19.80064        14.30777        -0.27188
C         19.79594        17.27483        -0.60553
C         18.55290        19.40298        -0.11488
C         19.78329        18.72196        -0.16205
C         20.59424         1.92444         0.92917
C         20.59251         3.44301         0.74508
C         21.92258         1.29636         0.93338
C         21.88304         4.16024         0.76911
C         20.58661         6.35439         0.63726
C         20.62644         7.76079         0.53683
C         21.84918         5.64201         1.09169
C         21.76671         8.43661         1.23411
C         20.78428        10.68007         0.41770
C         20.87176        12.14608         0.34071
C         21.69658         9.90936         1.11667
C         22.13695        12.89335         0.68263
C         20.94467        15.07380        -0.02271
C         21.01451        16.50059        -0.19272
C         22.16982        14.39897         0.43802
C         22.21921        17.19322        -0.14622
C         21.03003        19.36429        -0.04022
C         22.25916        18.65111        -0.14469
C         23.09237         2.03040         0.90992
C         23.07846         3.48861         0.84611
C         24.36866         1.36637         0.99866
C         24.34691         4.22110         0.79637
C         23.05584         6.35980         0.43693
C         23.24327         7.81163         0.98895
C         24.36386         5.61237         0.59563
C         24.31843         8.54352         0.12059
C         23.63434        10.88564         1.01338
C         23.48123        12.23145         0.58956
C         24.56261        10.01581         0.45699
C         24.63817        12.86008         0.11625
C         23.43148        15.09398         0.07329
C         23.45053        16.44270        -0.17604
C         24.63384        14.29239        -0.20249
C         24.69020        17.14959        -0.69713
C         23.50643        19.30952        -0.15069
C         24.73502        18.62334        -0.35650
C         25.55433         2.05674         1.01884
C         25.57155         3.49445         0.87668
C         26.85444         1.27935         1.10984
C         26.79785         4.19867         0.74938
C         25.59233         6.32592         0.41390
C         25.62946         7.74151         0.16641
C         26.80793         5.56984         0.48813
C         26.89669         8.40106        -0.03515
C         25.68779        10.66204        -0.21850
C         25.80991        12.11366        -0.09461
C         26.96763         9.84260        -0.42938
C         27.12171        12.74722        -0.10077
C         25.92605        14.98757        -0.40434
C         25.96133        16.47073        -0.16050
C         27.20687        14.26277        -0.17611
C         27.22185        17.09081        -0.71155
C         25.97680        19.24237        -0.39056
C         27.21610        18.53796        -0.68178
C         28.00215         2.13254         1.57298
C         28.13034         3.48362         0.90267
C         28.99721         1.66276         2.36905
C         29.03804         4.41509         1.73667
C         28.12752         6.21476         0.15964
C         28.09101         7.70795         0.10208
C         29.27723         5.70969         1.00490
C         29.41660         8.32029        -0.14260
C         28.24993        10.57906        -0.46244
C         28.33213        11.96827        -0.39287
C         29.49756         9.80485        -0.50995
C         29.57973        12.68866        -0.53018
C         28.41919        14.91075        -0.65707
C         28.36542        16.31847        -0.95599
C         29.61192        14.12315        -0.72070
C         29.60321        16.99582        -1.40392
C         28.41683        19.21606        -0.81315
C         29.63675        18.51526        -1.22421
C         30.20019         2.42919         2.61477
C         30.29412         3.73777         2.22381
C         31.48563         4.53839         2.36519
C         30.46287         6.39567         1.10558
C         30.61581         7.69660         0.44342
C         31.56257         5.80165         1.85933
C         31.80884         8.39185         0.38954
C         30.77980        10.50675        -0.33458
C         30.80312        11.95160        -0.54298
C         31.89464         9.75674        -0.01147
C         32.00948        12.63137        -0.77746
C         30.85055        14.76201        -1.01812
C         30.93506        16.22235        -1.44256
C         32.02115        14.00333        -1.04820
C         32.03659        16.97105        -0.72572
C         30.92975        19.14007        -0.92412
C         32.04152        18.35377        -0.62179
O         22.06513        13.84032         1.80038
O          7.08006        15.23505         2.76095
O         26.06691        10.13169        -1.56394
O         13.73339        10.54454         0.07107
O         13.00440        12.84277        -2.66000
O         11.99551        18.28003        -1.68067
O         18.07437        14.80247        -2.05105
O         11.62277         8.34545        -3.37743
O         21.44551         8.23515         2.61836
O          3.89056         9.75573         2.49853
O          4.90102        13.92181         3.06814
O          8.77437        10.81591        -2.69649
O         22.66169        10.49089         1.92412
O         18.59363         2.32954        -1.00223
O         27.30739        13.60926         1.12733
O         11.21508         4.19528         0.10341
O         29.46999        17.85830        -2.57086
O          4.96619        10.51804        -1.02716
O         25.19957        14.54238        -1.58810
O         13.78336         7.09178        -2.84244
O          6.23674         5.68803         0.77728
O          7.53105         6.11120        -2.58045
O         29.55172         8.75711        -1.54743
O          7.44818         3.62228        -2.77544
O         20.32858         2.84717         2.07297
O         28.69869         3.22059        -0.39652
H         28.65139         4.05436        -0.93054
O          2.21500         5.28428         2.11313
H          2.77317         4.57989         2.50598
O         10.11451         3.93599        -3.39491
H          9.29816         4.07661        -3.92366
O         23.87639         8.61041        -1.26705
H         24.60572         9.05515        -1.77313
O         31.38120        16.18228        -2.83232
H         30.96303        16.96291        -3.27201
O         28.25248         4.74885         2.92672
H         28.82951         5.25938         3.53253
O         16.08254        16.92458        -2.19311
H         16.73202        16.32278        -2.62537
O         17.76045         7.90484         1.53797
H         18.54892         7.70780         2.09179
O         24.66275        17.08566        -2.13853
H         24.72908        16.13207        -2.39080
O         15.12887        14.66475        -2.82601
H         14.40795        14.22295        -3.32829
O          4.82564         7.48728         2.24357
H          4.20868         7.19766         2.94629
O         19.81238        17.31300        -2.07031
H         20.65123        17.73702        -2.35077
O         25.95995        16.67200         1.27709
H         26.68344        16.13660         1.66714
O         14.76741        17.05343         1.21159
H         13.98596        17.51309         1.58314
O         23.84693         7.74053         2.27682
H         23.10257         7.92817         2.92217
O         26.68976         0.11606         1.92216
H         26.45234         0.40535         2.82683
O         17.88778        16.69888         1.01332
O          4.34219         8.07807        -1.31633
H          4.56037         8.85801        -1.88162
O         11.00655         6.86422        -0.05857
H         10.99920         5.99992         0.42511
O         22.70372         6.33416        -0.96443
H         23.26694         6.98436        -1.45223
O         28.42489         5.80459        -1.24190
H         29.09020         6.43109        -1.60551
O         15.68340        14.76727         0.78489
H         16.24518        15.33725         1.35837
O         18.90059        12.13672        -2.22388
H         18.75905        13.06490        -2.53854
O         21.90596         5.66932         2.52700
H         21.64485         6.59530         2.82146
H          0.24736         1.34620        -0.26159
H          0.33997         3.74568         0.36649
H          2.30635         0.09189        -0.85411
H          0.63999         5.92010        -0.45364
H          0.84849         8.32167         0.09455
H          0.62847         9.80823         1.76552
H          0.69654        12.21202         2.06123
H          0.64132        14.15360         1.79812
H          0.67573        16.58451         2.13927
H          1.85440        18.71695         2.37683
H          4.82426         0.05618        -1.09192
H          3.96223        20.01926         2.24297
H          7.39424         0.15485        -1.24522
H          6.35967        20.10892         1.83631
H          9.79803         0.26486        -1.11839
H          8.75917        20.25401         1.24996
H         12.13305         0.35660        -0.62234
H         11.20047        20.32196         0.82918
H         14.48872         0.34952        -0.09445
H         13.63167        20.55945        -0.20319
H         16.58979         0.26754         0.71805
H         16.08534        20.52526        -0.34539
H         19.23655         0.31647         1.61749
H         18.56081        20.49693         0.01731
H         21.97968         0.19705         0.92062
H         21.06115        20.45216         0.12812
H         24.38714         0.26897         1.08268
H         23.52597        20.40410        -0.02677
H         27.10615         0.91549         0.07353
H         26.04135        20.33047        -0.22977
H         28.92971         0.64251         2.77606
H         28.46935        20.29846        -0.62197
H         31.06071         1.92498         3.08001
H         32.35727         4.09663         2.87176
H         32.49079         6.37549         1.98306
H         32.73040         7.92022         0.75761
H         32.87687        10.24336         0.06765
H         32.95559        12.07449        -0.81152
H         32.97356        14.48418        -1.30944
H         32.95376        16.42001        -0.47248
H         30.96371        20.22648        -0.75964
H         32.95146        18.85197        -0.25411
