         429
 CSIRO Nanostructure Databank - Neutral Graphene Oxide Data Set
C          1.46468         2.14495        -1.25160
C          1.47093         3.51273        -1.61071
C          2.64006         1.50453        -0.92064
C          2.63909         4.25966        -1.56955
C          1.49771         6.52805        -1.63995
C          1.50660         7.86564        -1.78355
C          2.64543         5.66061        -2.14726
C          2.66883         8.57880        -2.36066
C          1.50648        10.73772        -2.61496
C          1.52608        12.09822        -2.89003
C          2.71201        10.06887        -2.34909
C          2.72467        12.81132        -2.76643
C          1.43013        15.69697        -1.93291
C          1.28117        16.54046        -0.83503
C          2.67814        15.04996        -2.17915
C          2.41282        16.94511        -0.10778
C          2.34233        17.80323         1.01744
C          3.86822         2.22485        -0.89720
C          3.85964         3.63282        -1.17309
C          5.09317         1.57332        -0.62605
C          5.07659         4.36342        -1.07192
C          3.93404         6.41016        -1.92561
C          3.98778         7.78941        -2.35234
C          5.02603         5.87221        -1.06313
C          5.25800         8.57731        -2.23153
C          3.92005        10.79862        -2.23370
C          3.92057        12.21673        -2.30440
C          5.22327        10.08873        -2.20649
C          5.16060        13.00747        -1.99162
C          3.80711        15.26811        -1.41002
C          3.75779        16.60994        -0.69630
C          5.08308        14.50312        -1.54091
C          4.91340        16.89606         0.19908
C          3.47405        18.26733         1.65566
C          4.79845        17.87714         1.23280
C          6.30792         2.26990        -0.64060
C          6.28844         3.69957        -0.84076
C          7.54534         1.57965        -0.42241
C          7.52594         4.44202        -0.81015
C          6.36138         6.55307        -1.29557
C          6.42969         7.89581        -1.63649
C          7.55735         5.82095        -0.98820
C          7.66994         8.64542        -1.55895
C          6.43053        10.82374        -1.76651
C          6.39290        12.23007        -1.60625
C          7.65525        10.11096        -1.65896
C          7.56705        12.88447        -1.17556
C          6.23008        15.02537        -0.76403
C          6.13717        16.23677        -0.06234
C          7.49884        14.24099        -0.52121
C          7.37343        16.95198         0.30107
C          5.93214        18.34901         1.90798
C          7.25169        18.14828         1.34571
C          8.77320         2.22832        -0.45739
C          8.79281         3.68339        -0.74605
C         10.00984         1.54325        -0.30728
C         10.07476         4.42325        -0.54032
C          8.79780         6.59946        -0.75393
C          8.83594         8.00827        -1.17425
C         10.04755         5.91070        -0.30463
C         10.15462         8.63604        -1.44176
C          8.85820        10.81654        -1.46139
C          8.81846        12.19456        -1.13480
C         10.17791        10.14100        -1.77261
C         10.03213        12.86213        -0.71796
C          8.77723        15.08411        -0.72555
C          8.69205        16.33475         0.13499
C         10.01371        14.25926        -0.41167
C          9.80705        16.96597         0.60477
C          8.49314        18.58058         1.95520
C          9.72880        18.15847         1.44694
C         11.25503         2.19311        -0.25342
C         11.29503         3.68813        -0.02249
C         12.46851         1.48807        -0.20965
C         12.51163         4.37389        -0.60400
C         11.39492         6.66267        -0.20090
C         11.42884         7.92052        -1.09515
C         12.58920         5.81301        -0.53251
C         12.71072         8.66436        -1.00581
C         11.37223        10.81776        -1.13732
C         11.29103        12.13195        -0.67047
C         12.71245        10.15153        -1.33883
C         12.46786        12.76815        -0.14031
C         11.12173        14.89945         0.10748
C         11.15126        16.41242         0.19614
C         12.32151        14.11245         0.43319
C         12.30878        16.99314         0.97079
C         10.92048        18.84923         1.78160
C         12.20844        18.32892         1.49957
C         13.73567         2.13422        -0.22023
C         13.81093         3.56179        -0.61183
C         14.92767         1.45220        -0.00147
C         15.06338         4.30901        -0.40954
C         13.86598         6.46154        -1.00075
C         13.88929         7.96551        -0.78892
C         15.08894         5.72083        -0.48495
C         15.13388         8.62335        -0.53224
C         13.87397        10.83433        -0.66402
C         13.74623        12.11227        -0.12531
C         15.20444        10.12495        -0.82700
C         14.93114        12.81770         0.40495
C         13.55086        14.84814         0.89810
C         13.51202        16.31852         1.06787
C         14.85430        14.17800         0.79478
C         14.70750        17.00995         1.44028
C         13.38250        19.02374         1.85913
C         14.65334        18.41058         1.75187
C         16.18687         2.12942         0.02910
C         16.22443         3.57510        -0.06936
C         17.37983         1.42344         0.19747
C         17.44467         4.26709         0.15315
C         16.27031         6.42603        -0.17422
C         16.29463         7.88257        -0.18866
C         17.45857         5.69730         0.14841
C         17.49414         8.52793         0.24367
C         16.36092        10.81933        -0.11409
C         16.17800        12.16183         0.48170
C         17.52737        10.00238         0.34300
C         17.29513        12.80490         1.08552
C         16.00438        14.89590         1.19050
C         15.95169        16.33572         1.46147
C         17.19444        14.17428         1.40243
C         17.14822        17.07233         1.63239
C         15.86325        19.11717         1.97909
C         17.12009        18.50399         1.84855
C         18.62586         2.09485         0.34969
C         18.64293         3.53281         0.39522
C         19.83358         1.38792         0.47961
C         19.85097         4.21540         0.69443
C         18.65958         6.37713         0.50741
C         18.64725         7.80538         0.62480
C         19.84626         5.64840         0.80403
C         19.81762         8.45010         1.16588
C         18.50374        10.62446         1.28496
C         18.53692        12.09708         1.35577
C         19.74557         9.85920         1.61835
C         19.69618        12.71833         1.79622
C         18.34438        14.86956         2.00211
C         18.38451        16.32387         1.71538
C         19.63595        14.13915         2.18108
C         19.56539        16.82892         1.24532
C         18.32361        19.28236         2.10155
C         19.56359        18.95306         1.56811
C         21.05572         2.05848         0.73196
C         21.05038         3.48661         0.90864
C         22.27543         1.34941         0.82336
C         22.24682         4.16134         1.31488
C         21.01915         6.32324         1.24092
C         20.96706         7.73715         1.45265
C         22.21628         5.59396         1.53284
C         22.09055         8.41445         2.20063
C         21.00124        10.60886         1.86081
C         20.96448        12.02563         1.92979
C         22.20511         9.90511         1.99897
C         22.19243        12.74328         2.07201
C         20.91730        14.95090         2.29118
C         20.87887        16.20522         1.41680
C         22.18932        14.17306         2.07723
C         22.11195        17.06712         1.49577
C         20.88936        19.34102         1.90715
C         22.05268        18.56259         1.64677
C         23.47656         2.01351         1.14888
C         23.43219         3.41279         1.45835
C         24.71679         1.32666         1.23465
C         24.63977         4.03825         2.00632
C         23.38608         6.29597         1.92737
C         23.40561         7.70973         2.06604
C         24.60291         5.52599         2.21368
C         24.58548         8.41276         2.40478
C         23.45337        10.58705         2.14816
C         23.44361        12.02334         2.11563
C         24.69384         9.86955         2.34590
C         24.67157        12.73502         2.17588
C         23.36639        14.93055         2.07296
C         23.36463        16.35891         1.92900
C         24.63784        14.20926         2.29319
C         24.57081        17.07351         1.79390
C         23.29509        19.20782         1.69434
C         24.52589        18.50676         1.55931
C         25.94261         1.98934         1.49346
C         25.96030         3.40101         1.82283
C         27.15730         1.28550         1.48318
C         27.15406         4.10892         1.97451
C         25.85735         6.25362         2.39963
C         25.69457         7.56522         2.76332
C         27.19693         5.53972         2.55399
C         27.52940         8.66522         2.59341
C         25.94009        10.61211         2.28238
C         25.91457        12.05042         2.14466
C         27.25261         9.99358         2.18305
C         27.15705        12.79845         1.94117
C         25.93368        14.99330         2.14859
C         25.84026        16.41271         1.76498
C         27.17742        14.24834         1.87051
C         26.98256        17.08343         1.31125
C         25.68884        19.18471         1.19151
C         26.90593        18.48861         0.97491
C         28.39640         1.97862         1.55304
C         28.38933         3.42833         1.70248
C         29.59463         1.28304         1.42308
C         29.59863         4.13889         1.50866
C         28.34812         6.36310         1.91943
C         28.52730         7.85272         2.06755
C         29.55131         5.62351         1.42518
C         29.61952         8.53017         1.42184
C         28.37877        10.67786         1.64840
C         28.33454        12.09974         1.61604
C         29.57971         9.95749         1.33075
C         29.62292        12.79359         1.47281
C         28.31838        14.98078         1.53008
C         28.24519        16.39350         1.19554
C         29.62773        14.30135         1.50017
C         29.35213        17.08866         0.68798
C         28.01219        19.13436         0.41138
C         29.22894        18.44003         0.19757
C         30.87652         1.97130         1.09768
C         30.80819         3.47480         1.22526
C         32.13276         1.44550         1.81762
C         31.99417         4.17876         0.90075
C         30.88988         6.35316         1.39464
C         30.78818         7.81858         1.04320
C         31.86166         5.62043         0.47418
C         31.93748         8.49392         0.57207
C         30.75602        10.65519         0.88464
C         30.77844        12.07352         0.89609
C         31.92484         9.92676         0.50488
C         31.90970        12.78489         0.42701
C         30.85016        15.00689         0.99408
C         30.68985        16.47681         0.60509
C         31.94324        14.22488         0.39666
C         31.69892        17.07301        -0.24914
C         30.29616        19.05558        -0.48402
C         31.51751        18.37299        -0.75663
C         33.34641         2.12824         1.21739
C         33.23149         3.51272         0.80956
C         34.53083         1.45915         1.07633
C         34.40125         4.21924         0.35673
C         33.17273         6.35346         0.31702
C         33.14672         7.77345         0.24907
C         34.34695         5.62733         0.10059
C         34.35989         8.49567        -0.05569
C         33.10878        10.63523         0.13342
C         33.07760        12.05547         0.03847
C         34.32861         9.92466        -0.11678
C         34.24385        12.76143        -0.39798
C         33.02412        14.89601        -0.20529
C         33.05906        16.41833        -0.29618
C         34.16294        14.18195        -0.63354
C         33.78210        16.86101        -1.57082
C         32.60388        19.04135        -1.41627
C         33.78504        18.36647        -1.72921
C         35.70188         2.10259         0.52449
C         35.63571         3.53202         0.24519
C         36.84242         1.38458         0.24701
C         36.83500         4.24840        -0.04514
C         35.52910         6.31478        -0.54036
C         35.57170         7.80222        -0.29735
C         36.84125         5.61290        -0.30912
C         36.78824         8.50682        -0.51785
C         35.52264        10.64029        -0.43594
C         35.45347        12.06267        -0.58169
C         36.75076         9.91968        -0.58954
C         36.64200        12.83361        -0.98999
C         35.25669        14.87022        -1.29178
C         35.13983        16.22015        -1.68683
C         36.46231        14.18003        -1.57409
C         36.22827        16.90348        -2.25488
C         34.90992        19.01271        -2.26519
C         36.12477        18.32580        -2.53313
C         37.98708         2.06987        -0.44984
C         38.13046         3.48661         0.10662
C         39.30850         1.33766        -0.40663
C         39.31716         4.20611        -0.47900
C         38.07171         6.33066        -0.51791
C         38.04797         7.77733        -0.69257
C         39.28626         5.62464        -0.60275
C         39.22878         8.43370        -1.04828
C         38.00772        10.66213        -0.81629
C         37.92285        12.10918        -1.20750
C         39.27127         9.90978        -1.12737
C         38.85705        12.61667        -2.26010
C         37.52605        14.82312        -2.21999
C         37.45051        16.21162        -2.52309
C         38.70176        14.05227        -2.68841
C         38.59755        16.92911        -3.01052
C         37.25843        19.00801        -2.99337
C         38.49471        18.34566        -3.20114
C         40.45415         2.02055        -0.62852
C         40.45699         3.46623        -0.78978
C         41.60789         4.14293        -1.34903
C         40.61575         6.33635        -0.71404
C         40.48587         7.75066        -1.22716
C         41.66099         5.49355        -1.40607
C         41.58065         8.44130        -1.69643
C         40.38571        10.56036        -1.86516
C         40.16689        11.90269        -2.48316
C         41.49822         9.80965        -2.11856
C         41.30851        12.74712        -2.89608
C         39.91504        14.79559        -3.20955
C         39.85238        16.28461        -3.24190
C         41.20329        14.06510        -3.17117
C         40.96313        17.05024        -3.59452
C         39.64753        19.08345        -3.58763
C         40.86068        18.44598        -3.75938
O         13.06677         3.80868        -1.85504
O         25.36924        14.70182         3.47314
O         24.42986         4.57210         3.37507
O          9.70032         4.03564        -1.88207
O         31.28401        16.05762         1.92017
O         39.01679        11.74889        -3.41604
O         18.73270        14.38051         3.33784
O         37.78300        12.92905        -0.01120
O         38.92537        14.20968        -4.12434
O         19.53541        18.00519         0.50773
O         12.67743        14.17352         1.89025
O          3.21871         8.04056        -3.59997
O         18.65213        10.01745         2.60478
O         28.52505         6.07359         0.48440
O          5.53083         9.33560        -3.44533
O         21.70895        16.38349         0.23346
O          2.68636        14.12438        -3.22902
O         17.59091        10.73216        -0.94509
O         29.94506        13.54239         2.71350
O          7.30283        18.31769        -0.12269
O          5.46029        14.09185        -2.91112
O         10.87512         7.78970        -2.43455
O         39.02919        10.48814         0.22458
O         26.68678         8.13163         3.55879
O          9.15071         6.37167         0.74913
O          4.67780         6.24676         0.33928
H          5.35513         5.83820         0.92090
O         10.30647        10.28617        -3.21127
H         11.21701         9.98049        -3.44980
O         15.51589        10.17245        -2.26040
H         16.50392        10.19212        -2.32231
O         32.06603         1.71792         3.21898
H         32.07967         2.68934         3.34706
O         11.37837         3.90427         1.41151
H         10.68363         3.36894         1.84825
O         27.51587         5.40132         3.95772
H         26.72151         5.03714         4.40511
O         21.73792         8.24503         3.62315
H         22.44888         8.65793         4.15822
O         13.90533         6.31472        -2.46330
H         13.66203         5.37612        -2.66575
O         11.53661         7.16247         1.15452
H         10.65384         7.06195         1.58636
O          3.92810        17.60899        -1.79719
H          4.82329        17.47047        -2.17657
O         31.44765         6.26540         2.73475
H         30.91022         6.82702         3.33237
O         35.28321         6.18582        -2.00181
H         34.45992         6.68228        -2.19912
O          2.42196         5.47866        -3.57915
H          2.59483         6.35618        -4.00403
O         33.79205        16.89808         0.85830
H         33.24078        16.68416         1.64779
O         41.09959         6.48295         0.67451
H         41.23235         5.57845         1.03072
O         11.37275        16.86506        -1.18661
H         10.56879        16.62049        -1.70652
O          8.87430        15.53211        -2.09819
H          8.86781        14.74433        -2.68320
O         37.62213         2.19379        -1.85686
H         37.50460         1.29216        -2.22101
O         31.12306         1.67674        -0.32201
H         30.35083         2.00587        -0.82911
O         31.25341         5.60654        -0.85001
H         31.81694         5.05702        -1.43386
O          7.51425        13.95984         0.92348
H          6.79784        13.32048         1.11997
O         32.98112        16.32908        -2.67186
H         33.41353        16.59201        -3.51124
O         12.94080        10.19808        -2.79881
H         13.89800         9.99033        -2.95267
O         38.38571         3.35315         1.53695
H         38.42675         4.25398         1.92087
O         20.99789        15.48323         3.64273
H         20.17993        15.19164         4.11585
H          0.51973         1.58461        -1.28168
H          0.53666         3.97691        -1.95658
H          2.64590         0.42959        -0.68967
H          0.62426         6.03307        -1.18882
H          0.66984         8.46718        -1.39687
H          0.57261        10.16897        -2.71574
H          0.62244        12.61895        -3.23059
H          0.56632        15.42435        -2.55309
H          0.28237        16.89551        -0.54141
H          1.35017        18.11923         1.37435
H          5.09340         0.49075        -0.43007
H          3.38035        18.95905         2.50495
H          7.51215         0.49584        -0.23625
H          5.82623        18.91214         2.84659
H          9.99135         0.44273        -0.28434
H          8.46225        19.30626         2.78117
H         12.44290         0.38844        -0.16583
H         10.84122        19.80733         2.31676
H         14.90570         0.36871         0.18816
H         13.30730        20.05867         2.22428
H         17.35749         0.32431         0.23700
H         15.81155        20.19169         2.20911
H         19.83017         0.29085         0.39895
H         18.23910        20.14889         2.77454
H         22.28499         0.26337         0.65013
H         21.04964        20.33139         2.36226
H         24.73731         0.24490         1.03644
H         23.32274        20.30727         1.72998
H         27.15851         0.19840         1.31773
H         25.64669        20.26480         0.98887
H         29.56600         0.18810         1.31166
H         27.92911        20.18602         0.10101
H         32.20842         0.33774         1.69379
H         30.17532        20.09076        -0.83508
H         34.60285         0.39932         1.36397
H         32.51450        20.11846        -1.62341
H         36.86995         0.29810         0.42618
H         34.87252        20.10045        -2.43211
H         39.31372         0.23888        -0.33550
H         37.20071        20.09291        -3.16791
H         41.41479         1.48976        -0.71449
H         42.42617         3.53326        -1.76094
H         42.55038         5.98264        -1.82788
H         42.54956         7.93636        -1.80772
H         42.35621        10.23968        -2.65465
H         42.31106        12.29451        -2.86822
H         42.12465        14.62920        -3.37881
H         41.93309        16.56770        -3.77663
H         39.56258        20.16956        -3.73522
H         41.75139        19.02044        -4.04899
