         430
 CSIRO Nanostructure Databank - Neutral Graphene Oxide Data Set
C         27.98527        27.37854         0.57155
C         27.93815        28.77109         0.33252
C         26.71026        29.51051         0.43517
C         27.87500        31.64970         0.16972
C         26.70103        30.89000         0.42177
C         27.90397        33.06645         0.23995
C         26.73712        33.82383         0.58269
C         27.94519        35.94024         0.34002
C         26.75575        35.19235         0.60913
C         27.94306        37.36405         0.36092
C         26.74129        38.10804         0.58120
C         27.94169        40.23487         0.43227
C         26.74155        39.47531         0.62310
C         27.94048        41.64103         0.50007
C         26.76647        42.39665         0.80106
C         28.08229        44.44273         1.09942
C         26.81907        43.74660         1.04220
C         28.14790        45.78009         1.56035
C         30.41776        27.37883         0.35671
C         29.19273        26.69839         0.55165
C         30.37014        28.78413         0.14472
C         29.14708        29.46463         0.08375
C         30.35870        31.67156        -0.33179
C         29.06584        30.89858        -0.38250
C         30.31053        33.06554        -0.35055
C         29.11455        33.79156        -0.02991
C         30.37946        35.94285        -0.10570
C         29.15331        35.21935         0.05047
C         30.39487        37.36721         0.00022
C         29.16276        38.09267         0.17309
C         30.41358        40.22153         0.09031
C         29.16949        39.50834         0.20378
C         30.45182        41.62745         0.17308
C         29.17284        42.41417         0.09626
C         30.52326        44.42300         0.85708
C         29.26878        43.77128         0.74634
C         30.57434        45.76811         1.32415
C         29.36565        46.42479         1.66271
C         32.93942        24.55527         0.38602
C         31.74086        25.24180         0.41322
C         32.91146        27.33953         0.10102
C         31.69480        26.65764         0.30745
C         32.94087        28.81635         0.08791
C         31.62315        29.56742         0.10782
C         32.82829        31.62140        -0.57058
C         31.61302        30.97140        -0.35006
C         32.80480        33.04623        -0.94280
C         31.50457        33.81876        -0.75858
C         32.82712        35.90464        -0.52092
C         31.59991        35.25669        -0.45909
C         32.92056        37.31637         0.00150
C         31.62071        38.07486        -0.08209
C         32.87870        40.20123        -0.18290
C         31.64135        39.48403        -0.03787
C         32.90589        41.60458        -0.03163
C         31.68991        42.32122         0.20996
C         32.99131        44.39203         0.61614
C         31.73867        43.71971         0.52799
C         33.04406        45.76249         1.03050
C         31.85419        46.44188         1.41907
C         33.16959        48.43264         1.93334
C         31.95229        47.76487         1.89879
C         35.55586        23.14676         0.50547
C         35.44350        24.55240         0.35822
C         34.17321        25.23198         0.23087
C         35.37482        27.34052        -0.26712
C         34.15087        26.64296         0.03392
C         35.29964        28.71745        -0.88815
C         34.12120        29.52187        -0.40504
C         35.31342        31.60027        -0.92915
C         34.09591        30.90813        -0.58135
C         35.27429        33.03603        -1.22161
C         34.05518        33.81555        -0.94711
C         35.31534        35.94857        -0.89869
C         34.05636        35.19899        -0.82999
C         35.31868        37.36385        -0.80116
C         34.10515        38.09256        -0.52559
C         35.27730        40.26663        -0.99568
C         34.08572        39.47669        -0.50350
C         35.35255        41.65930        -0.41735
C         34.16691        42.32237        -0.06300
C         35.46029        44.39458         0.35430
C         34.20371        43.70408         0.30031
C         35.49771        45.75999         0.73979
C         34.30821        46.44155         1.08817
C         35.59968        48.56342         1.40063
C         34.35598        47.81661         1.50240
C         35.62570        49.96615         1.62054
C         37.97954        23.31390         0.73643
C         36.80282        22.54410         0.58102
C         37.83298        24.71285         0.82803
C         36.62747        25.34285         0.39651
C         37.82409        27.35266        -0.60091
C         36.59913        26.69250        -0.13681
C         37.80458        28.78424        -0.73130
C         36.58517        29.49618        -0.78007
C         37.81768        31.63256        -1.01013
C         36.56447        30.91144        -0.93021
C         37.84123        33.06724        -1.07176
C         36.58443        33.80990        -1.26509
C         37.78547        35.95235        -0.98103
C         36.54905        35.26017        -1.03398
C         37.79720        37.37302        -0.94406
C         36.55726        38.09111        -0.90061
C         37.79634        40.21786        -0.86906
C         36.56859        39.50150        -0.87835
C         37.80947        41.62004        -0.66446
C         36.60980        42.33411        -0.36075
C         37.92274        44.44383        -0.07044
C         36.67057        43.70500         0.02747
C         37.96880        45.82723         0.21403
C         36.83258        46.41243         1.00999
C         37.98012        48.65342         0.79716
C         36.78992        47.91658         1.00879
C         37.99889        50.05250         1.08033
C         36.79666        50.67882         1.49904
C         40.51178        20.58668         1.13421
C         39.44084        21.38119         1.32499
C         40.36909        23.19507        -0.06002
C         39.29761        22.66529         0.65548
C         40.36972        24.53524        -0.65304
C         39.11744        25.19894        -1.15865
C         40.25839        27.37697        -0.97495
C         39.02544        26.67552        -0.91113
C         40.26430        28.76291        -0.80415
C         39.04423        29.48861        -0.80024
C         40.30308        31.60506        -0.97987
C         39.04796        30.91805        -0.91628
C         40.31907        33.06849        -1.34510
C         39.03447        33.79170        -1.03271
C         40.24895        35.94028        -0.91589
C         39.03220        35.22432        -0.99236
C         40.27411        37.35218        -0.99362
C         39.03422        38.08442        -1.00294
C         40.27420        40.21836        -1.14236
C         39.04090        39.49792        -0.97913
C         40.26367        41.62295        -1.13617
C         39.13332        42.29339        -0.41441
C         40.24550        44.53746        -0.84003
C         39.09726        43.79247        -0.53144
C         40.24492        45.93806        -0.66651
C         39.12597        46.58555        -0.07110
C         40.29706        48.77959         0.00425
C         39.15995        48.01556         0.24867
C         40.37112        50.17160         0.38543
C         39.21856        50.80314         0.94548
C         40.47308        52.87312         1.22667
C         39.29960        52.16599         1.34511
C         42.89889        20.34233         0.41615
C         41.55515        20.95394         0.11637
C         42.77920        23.02419        -0.58399
C         41.62380        22.45061        -0.12939
C         42.82069        24.41742        -1.18104
C         41.54178        25.18924        -0.92194
C         42.80908        27.35762        -0.90123
C         41.53885        26.64363        -1.35187
C         42.80241        28.74380        -0.72969
C         41.52252        29.48083        -0.42414
C         42.75372        31.62728        -0.76361
C         41.51567        30.93065        -0.81965
C         42.73303        33.07345        -0.72962
C         41.54363        33.76747        -0.85069
C         42.77869        35.93386        -0.77719
C         41.49127        35.21512        -0.47253
C         42.76498        37.36136        -0.94933
C         41.51856        38.06471        -1.03492
C         42.74166        40.19416        -1.17271
C         41.51981        39.48651        -1.19393
C         42.78423        41.62572        -1.47201
C         41.41605        42.38588        -1.56151
C         42.74561        44.54095        -1.22595
C         41.41167        43.91065        -1.58927
C         42.77352        46.04841        -1.41998
C         41.42267        46.73212        -1.10055
C         42.75428        48.88588        -0.62490
C         41.45186        48.18612        -0.70659
C         42.73152        50.38681        -0.58456
C         41.55843        50.92324         0.20823
C         42.86368        52.97721         0.60629
C         41.62704        52.26562         0.65674
C         44.03375        20.89767        -0.02934
C         45.33837        23.00682        -0.80307
C         44.02770        22.23222        -0.67284
C         45.29318        24.49200        -0.72692
C         44.09514        25.18677        -0.86599
C         45.24818        27.36731        -0.62224
C         44.04928        26.64082        -0.80893
C         45.25689        28.79027        -0.51554
C         44.00928        29.48332        -0.58668
C         45.18646        31.65346        -0.38103
C         43.97532        30.92375        -0.56517
C         45.18732        33.07851        -0.41031
C         43.97119        33.79400        -0.56255
C         45.27269        35.89609        -0.96924
C         43.96564        35.21490        -0.68891
C         45.23739        37.38474        -0.75056
C         43.98768        38.08369        -0.93694
C         45.18095        40.25584        -0.89997
C         43.97348        39.51327        -0.96943
C         45.18636        41.67906        -0.91277
C         43.99095        42.39370        -1.15391
C         45.19848        44.54901        -0.84550
C         43.93929        43.83873        -1.07165
C         45.21855        45.98115        -0.83019
C         43.89676        46.67765        -0.59067
C         45.19169        48.87931        -0.75573
C         43.94301        48.19047        -0.71808
C         45.26478        50.26397        -0.42764
C         44.05262        50.99765        -0.17604
C         44.04877        52.32657         0.27230
C         47.72319        23.05767        -0.17831
C         46.60555        22.34875        -0.44962
C         47.73616        24.50643        -0.21668
C         46.54057        25.18036        -0.48846
C         47.79834        27.40148        -0.25568
C         46.53640        26.64757        -0.62415
C         47.70267        28.84599         0.05819
C         46.45398        29.52325        -0.21895
C         47.57104        31.67947         0.23477
C         46.40937        30.94876        -0.11453
C         47.59767        33.09359         0.15567
C         46.42002        33.79658        -0.22924
C         47.65031        35.90297        -0.13448
C         46.45847        35.20445        -0.35199
C         47.60487        37.39721         0.05562
C         46.41286        38.06551        -0.58280
C         47.71328        40.27182        -0.51761
C         46.44487        39.51497        -0.82007
C         47.59526        41.72265        -0.33774
C         46.42808        42.39583        -0.65600
C         47.65298        44.55718        -0.63094
C         46.41960        43.84962        -0.69395
C         47.67915        45.98356        -0.85593
C         46.41476        46.68004        -0.90747
C         47.70910        48.83944        -1.00953
C         46.39804        48.15111        -1.28050
C         47.72541        50.12555        -0.52148
C         46.54164        50.85355        -0.27336
C         50.17236        24.54275         0.40624
C         48.96465        25.22093         0.10546
C         50.08841        27.32005         0.71865
C         48.96414        26.63683         0.22626
C         49.99345        28.77192         1.11545
C         48.80244        29.50793         0.55016
C         50.05426        31.70711         0.62462
C         48.74841        30.98075         0.83989
C         50.05935        33.06949         0.53459
C         48.82647        33.81465         0.32664
C         50.15798        35.91929        -0.15611
C         48.85438        35.20373         0.13448
C         50.13691        37.41540         0.07990
C         48.92616        38.11727        -0.08226
C         50.12294        40.23278         0.11596
C         48.92562        39.53085        -0.08157
C         50.10330        41.70059         0.25324
C         48.80348        42.46414         0.06465
C         50.11918        44.51341        -0.40348
C         48.88222        43.87843        -0.33969
C         50.19847        45.88944        -1.01101
C         48.90025        46.65307        -0.96019
C         50.23135        48.77666        -1.03995
C         48.95207        48.09134        -1.43372
C         51.31097        25.22882         0.79146
C         52.50515        27.38213         1.30127
C         51.29599        26.63243         0.97915
C         52.49575        28.82665         1.14523
C         51.30366        29.50371         0.93513
C         52.57259        31.69341         0.85382
C         51.33264        30.92660         0.44530
C         52.57699        33.07482         0.83220
C         51.29083        33.85021         0.92412
C         52.58982        35.92582         0.42732
C         51.38058        35.25354         0.39846
C         52.62022        37.38834         0.33108
C         51.35943        38.10962         0.23037
C         52.56580        40.28714         0.41305
C         51.35410        39.54154         0.27129
C         52.58304        41.69248         0.24896
C         51.36883        42.42555         0.10706
C         52.58649        44.55137        -0.08940
C         51.35115        43.82379        -0.11811
C         52.58666        45.98749        -0.20870
C         51.39882        46.67610        -0.52989
C         51.34017        48.10417        -0.63415
C         54.90817        27.45399         1.73706
C         53.70996        26.74256         1.60923
C         54.95415        28.84365         1.52639
C         53.75467        29.55525         1.21614
C         55.02227        31.68877         1.25779
C         53.79094        30.96428         1.08229
C         55.03769        33.09779         1.12376
C         53.81356        33.81225         0.88066
C         55.12404        35.88655         0.35370
C         53.81584        35.20436         0.66573
C         55.08096        37.39351         0.51073
C         53.81399        38.08090         0.49927
C         55.08981        40.28254         0.48544
C         53.81042        39.55976         0.84359
C         55.07046        41.73960         0.39470
C         53.83202        42.42547         0.26545
C         55.03705        44.57476         0.22245
C         53.80898        43.84769         0.13702
C         55.00779        46.00652         0.16623
C         53.83515        46.68181        -0.01894
C         56.18300        29.57266         1.65077
C         56.21560        30.93380         1.52445
C         56.23313        33.89139         1.34127
C         56.26955        35.21550         1.06746
C         56.24882        38.12307         0.46244
C         56.24799        39.55239         0.39291
C         56.26677        42.48854         0.43491
C         56.25012        43.87609         0.37333
O         49.29081        42.16148         1.41585
O         44.70080        22.35788        -1.96082
O         42.10183        41.90328        -2.75435
O         38.34967        24.60702        -1.90373
O         41.09195        47.75718        -2.08531
O         32.40843        29.40109         1.34282
O         31.95515        33.40034        -2.09430
O         47.38719        39.88147        -1.91558
O         35.90148        33.40086        -2.51016
O         47.47552        27.12728        -1.66348
O         43.54488        46.40655         0.79918
H         44.28278        46.71060         1.36805
O         55.34989        35.66334        -1.09123
H         55.38586        34.69270        -1.22998
O         41.49121        29.49618         1.06174
H         40.77953        30.11632         1.33016
O         48.52336        31.10687         2.33281
H         47.58167        30.87932         2.49647
O         28.78323        30.77987        -1.83719
H         28.80192        31.68667        -2.21253
O         41.59346        26.67640        -2.82253
H         40.74591        26.31108        -3.15796
O         51.08959        34.04734         2.38633
H         50.99148        33.15767         2.79005
O         40.40915        33.11121        -2.82761
H         39.63385        32.62268        -3.17942
O         51.45001        30.78235        -1.02830
H         52.26863        30.27167        -1.20765
O         49.77203        28.73173         2.57863
H         49.47029        29.64010         2.83884
O         50.44296        45.67310        -2.45985
H         50.12977        46.49279        -2.92064
O         35.05705        40.46435        -2.44667
H         35.00475        39.57461        -2.85678
O         53.76717        39.58434         2.32924
H         54.57503        39.12521         2.64470
O         42.81459        24.22358        -2.63361
H         42.71954        25.11907        -3.03980
O         33.18632        37.15699         1.45418
H         33.21240        38.05791         1.84211
O         48.96179        48.02763        -2.90960
H         48.01439        47.96710        -3.19695
O         37.14508        46.04260         2.41714
H         36.44798        46.44404         2.97948
O         28.98731        42.69382        -1.35237
H         28.16133        43.21716        -1.43587
O         39.41217        42.05769         1.03152
H         38.71027        42.52048         1.53900
O         47.30590        37.54631         1.50527
H         48.06309        37.17131         2.00532
O         46.23699        48.13663        -2.76222
H         45.35574        47.74427        -2.95872
O         35.06116        28.49326        -2.33090
H         35.10073        29.36833        -2.77346
O         38.84278        25.44190         1.39026
H         38.58066        26.38260         1.45546
O         41.39250        35.22554         1.01557
H         41.47425        36.16079         1.30207
O         45.48378        35.75223        -2.42133
H         44.70939        36.14770        -2.87522
O         43.10055        46.28598        -2.80438
H         42.34440        45.93251        -3.33019
O         41.18362        44.29202        -2.98902
H         41.62127        43.59379        -3.53256
O         50.28625        35.77797        -1.62438
H         51.11446        36.22930        -1.89494
O         41.11665        20.35761        -1.15049
H         41.70183        20.70882        -1.85580
O         42.50180        50.83736        -1.97573
H         42.46541        51.81752        -1.95583
H         27.05065        26.83285         0.76555
H         25.77814        28.95990         0.62812
H         25.75323        31.40435         0.63419
H         25.79706        33.30521         0.81122
H         25.82634        35.71848         0.86204
H         25.78719        37.58286         0.71730
H         25.78929        39.99448         0.79275
H         25.79609        41.88831         0.88774
H         25.90227        44.29965         1.29117
H         27.22010        46.30166         1.83542
H         29.18301        25.61352         0.71928
H         29.38073        47.46461         2.01413
H         32.92635        23.46443         0.51330
H         30.81498        24.66772         0.54781
H         33.18184        49.46761         2.29853
H         31.05745        48.29990         2.24131
H         34.65900        22.51525         0.46258
H         34.71078        50.50137         1.90451
H         36.88235        21.44886         0.54190
H         36.77568        51.75763         1.69910
H         40.59741        19.61985         1.65235
H         38.64869        21.08016         2.02693
H         40.53146        53.91582         1.57019
H         38.42584        52.66509         1.78353
H         42.91865        19.35328         0.89946
H         42.89144        54.01764         0.95935
H         44.99162        20.37550         0.10662
H         44.99609        52.86692         0.41015
H         48.64877        22.51321         0.04715
H         46.65533        21.25244        -0.49160
H         48.68160        50.63756        -0.34369
H         46.63459        51.90106         0.04017
H         50.23797        23.45183         0.30603
H         50.29757        49.86531        -1.17609
H         52.23379        24.65874         0.96502
H         52.23606        48.69302        -0.38863
H         55.83396        26.91810         1.99136
H         53.73393        25.65320         1.74984
H         55.95381        46.55790         0.26855
H         53.85912        47.77838        -0.06644
H         57.10611        29.01519         1.86690
H         57.17486        31.45760         1.63365
H         57.11828        33.41207         1.78368
H         57.18948        35.78371         1.26785
H         57.21700        37.60983         0.38538
H         57.21150        40.04947         0.21276
H         57.23153        41.97652         0.55103
H         57.19194        44.43962         0.43878
