         324
 CSIRO Nanostructure Databank - Neutral Graphene Oxide Data Set
C          1.28492         3.50161         0.51866
C          0.11936         4.25829         0.84849
C          1.53771         6.26755         1.28328
C          0.19749         5.58569         1.13667
C          1.49382         7.76162         1.05672
C          0.39682         8.48878         1.50791
C          1.37435        10.57810         0.72914
C          0.32631         9.87371         1.33020
C          1.27097        12.01184         0.49109
C          0.13892        12.73252         0.81372
C          1.24451        14.89502         0.53685
C          0.13539        14.15640         0.85297
C          1.30894        16.35450         0.90424
C          0.07371        17.10335         0.44086
C          1.26561        19.23876         0.68698
C          0.04738        18.44170         0.40039
C          1.26352        20.74052         0.48165
C         -0.00635        21.45587         0.24385
C          1.21138        23.53429        -0.16015
C         -0.01915        22.78622         0.01066
C          1.20564        24.99518        -0.08864
C         -0.01706        25.72868         0.15272
C          1.17368        27.83704         0.47684
C         -0.02143        27.08068         0.44147
C          1.23519        29.18945         0.86354
C          3.64829         3.39321        -0.11528
C          2.50491         4.13777         0.29478
C          3.70218         6.26362        -0.00450
C          2.60884         5.58160         0.46853
C          3.74963         7.72346         0.00713
C          2.60255         8.44934         0.48540
C          3.72585        10.58474        -0.08966
C          2.55901         9.87214         0.34712
C          3.72444        12.02120        -0.20143
C          2.41566        12.70886        -0.11148
C          3.68970        14.95061        -0.15183
C          2.40487        14.24895        -0.07658
C          3.72512        16.34862         0.04571
C          2.56466        17.04690         0.43424
C          3.81255        19.26938         0.18069
C          2.57833        18.50641         0.60930
C          3.67245        20.68962        -0.21924
C          2.50419        21.40522        -0.00897
C          3.60629        23.54759        -0.76108
C          2.40338        22.82285        -0.32147
C          3.66125        25.04908        -0.49085
C          2.40670        25.69583        -0.07669
C          3.66050        27.71787         0.67801
C          2.43537        27.19850        -0.04030
C          3.69932        29.18527         0.91077
C          2.44853        29.86493         0.99685
C          5.97107         3.13600        -0.69486
C          4.86810         3.99730        -0.41723
C          6.06375         6.30529        -0.81243
C          4.78628         5.50069        -0.74540
C          5.97706         7.74413        -1.14684
C          4.84127         8.44679        -0.51441
C          6.14056        10.59027        -0.63646
C          4.89215         9.87281        -0.45185
C          6.15377        12.03707        -0.54448
C          4.89231        12.73121        -0.45017
C          6.16682        14.92094        -0.58328
C          4.84760        14.21447        -0.78175
C          6.18321        16.33302        -0.45052
C          4.97202        17.07371        -0.21410
C          6.22725        19.15825        -0.44896
C          5.00138        18.47331        -0.22638
C          6.19128        20.59731        -0.80308
C          4.87062        21.32298        -0.82990
C          6.20896        23.56593        -0.75648
C          4.90181        22.81935        -0.93351
C          6.16606        24.97291        -0.27379
C          4.97113        25.64964        -0.14631
C          6.21900        27.67633         0.74786
C          4.94337        26.95723         0.55436
C          6.18185        29.11010         1.00521
C          4.92055        29.80964         1.07300
C          8.56264         3.09132        -0.88223
C          7.31418         3.54296        -0.50421
C          8.53527         6.24240        -1.18980
C          7.28723         5.77585        -0.58402
C          8.58981         7.74162        -1.46556
C          7.28985         8.50474        -1.33948
C          8.63220        10.52388        -0.70611
C          7.32802         9.89671        -0.89482
C          8.64932        12.05337        -0.57953
C          7.35977        12.75574        -0.65848
C          8.63170        14.89312        -0.67524
C          7.37156        14.19942        -0.67162
C          8.65257        16.29630        -0.57028
C          7.43637        17.02566        -0.47139
C          8.68844        19.20050        -0.57247
C          7.43831        18.46219        -0.48303
C          8.66784        20.64347        -0.58712
C          7.44911        21.37228        -0.67707
C          8.65336        23.48360        -0.30023
C          7.44600        22.77446        -0.54959
C          8.62496        24.90187         0.00393
C          7.42707        25.60311         0.10772
C          8.67985        27.65485         0.89849
C          7.40678        26.98580         0.57529
C          8.65816        29.19036         1.09740
C          7.35644        29.84363         1.03945
C         10.88829         3.37718        -0.18683
C          9.73207         3.94357        -0.64746
C         11.08363         6.14456        -1.05877
C          9.77843         5.39368        -1.07171
C         11.11004         7.64857        -1.09443
C          9.89073         8.42374        -1.26338
C         11.10877        10.55956        -1.06060
C          9.89451         9.81755        -1.05308
C         11.14000        11.99182        -1.04635
C          9.90649        12.76495        -0.90173
C         11.07359        14.93026        -1.24204
C          9.86523        14.15434        -0.89446
C         11.16376        16.35610        -0.94279
C          9.95742        17.02145        -0.32393
C         11.13740        19.22084        -0.67735
C          9.89999        18.50978        -0.58617
C         11.13276        20.64633        -0.60667
C          9.89887        21.36206        -0.51863
C         11.13043        23.51921        -0.36305
C          9.88212        22.77943        -0.35171
C         11.13706        24.90369        -0.18229
C          9.93234        25.52558         0.46400
C         11.09396        27.77905         0.38816
C          9.94697        27.03454         0.47100
C         11.06575        29.23257         0.49168
C          9.88318        29.90784         0.76543
C         13.17324         3.47804         0.64678
C         12.15540         4.06810        -0.08518
C         13.53430         6.03989        -0.68941
C         12.30519         5.41957        -0.61407
C         13.56891         7.56495        -0.44803
C         12.31609         8.30238        -0.92910
C         13.66009        10.53614        -0.95623
C         12.36483         9.77529        -1.14073
C         13.64011        12.02409        -0.90553
C         12.38731        12.69227        -1.11896
C         13.67076        14.91007        -1.32566
C         12.38596        14.13316        -1.39519
C         13.65789        16.36964        -1.04059
C         12.38097        17.07313        -1.00895
C         13.60100        19.25599        -0.90385
C         12.35401        18.49876        -0.86452
C         13.61024        20.68374        -0.57343
C         12.36654        21.38704        -0.57858
C         13.62409        23.52225        -0.59034
C         12.34146        22.79393        -0.54878
C         13.66259        25.00543        -0.50059
C         12.35057        25.71471        -0.42002
C         13.66914        27.88902         0.11140
C         12.36794        27.17283        -0.09516
C         13.53131        29.34570         0.03506
C         12.25927        29.94135         0.17664
C         15.67823         3.61441         1.30591
C         14.54366         3.91338         0.42483
C         16.04744         5.73012        -0.49123
C         14.69919         5.16595        -0.44522
C         16.08316         7.82427        -0.96645
C         14.85993         8.36337        -0.68547
C         16.11985        10.55716        -0.57571
C         14.83388         9.82917        -0.28978
C         16.11386        11.97665        -0.60966
C         14.86387        12.69529        -0.83136
C         16.19571        14.90808        -0.78162
C         14.94374        14.14706        -1.12097
C         16.09240        16.32406        -0.37939
C         14.84025        17.00575        -0.64675
C         15.95612        19.17830         0.09502
C         14.89455        18.47666        -0.67155
C         16.01907        20.64885         0.04185
C         14.82981        21.33246        -0.25628
C         16.03980        23.54408         0.27437
C         14.78510        22.78690        -0.03073
C         16.09676        25.01114         0.01813
C         14.91095        25.70882        -0.08956
C         16.17364        27.74305         0.30657
C         14.87099        27.15627         0.09786
C         15.92422        29.81195        -0.31164
C         14.57513        30.19551        -0.43087
C         17.93424         3.97517         2.17327
C         16.84701         4.35476         1.30744
C         18.29173         6.29352         0.45916
C         17.06447         5.49280         0.40296
C         18.44039         7.62956        -0.14096
C         17.38551         8.38630        -0.65935
C         18.68389        10.58967        -0.51667
C         17.39368         9.85268        -0.78956
C         18.50002        11.92878         0.09863
C         17.31355        12.67495        -0.34847
C         18.51037        14.82863         0.34193
C         17.42422        14.13681        -0.38672
C         18.44470        16.24378         0.46629
C         17.22855        16.96207         0.12238
C         18.39969        19.14553         0.81771
C         17.16542        18.38910         0.51549
C         18.39166        20.56640         0.86498
C         17.21168        21.33721         0.46979
C         18.39890        23.46025         1.03774
C         17.25318        22.73615         0.49235
C         18.52158        25.01519         0.71696
C         17.46545        25.66161        -0.18879
C         18.48764        28.04845        -0.47901
C         17.39839        27.18428        -0.04225
C         18.23335        29.32863        -1.12581
C         16.97709        30.01567        -1.19002
C         19.11821         4.64622         2.12462
C         20.58574         6.47748         1.41471
C         19.30977         5.81105         1.30096
C         20.83725         7.62939         0.75633
C         19.78519         8.28345        -0.03189
C         21.06360        10.60049         0.30292
C         19.92661         9.81319        -0.23222
C         20.96641        11.89552         0.66839
C         19.67239        12.62271         0.71952
C         20.67354        14.81284         1.44089
C         19.62141        14.10931         0.83506
C         20.64167        16.20062         1.52445
C         19.55054        16.94372         1.03794
C         20.73391        19.11424         1.47502
C         19.56563        18.40626         1.11097
C         20.72612        20.49278         1.57740
C         19.56798        21.25267         1.28830
C         20.71885        23.41205         1.80678
C         19.59435        22.69986         1.40003
C         20.85662        24.78404         1.52285
C         19.89088        25.50163         0.81469
C         20.83908        28.29226        -1.26001
C         19.84582        27.60197        -0.55144
C         20.54050        29.46475        -1.95885
C         19.25674        29.96832        -1.87973
O         16.20422        29.03782         0.83338
O          8.43954         6.77755        -2.54206
O         10.57330         5.53506        -2.29588
O          5.39722        20.71876        -2.05400
O         13.87267        24.31013        -1.80026
O         17.25543        14.67628        -1.76560
O          2.08706        13.48655        -1.31584
O         16.06562        18.66092         1.47058
O         18.20884        10.46460        -1.87177
O          8.76001        11.18623         0.60637
O         20.42116        26.55316         0.13439
O         11.60289        14.53682        -2.55553
O          6.36112         8.24520        -2.45825
O         13.28849        10.08085        -2.27939
O         14.76547         3.84021        -1.05286
O         14.57547        18.98388        -1.98934
O         12.19584        26.72361        -1.50312
O         18.00895        24.52776         1.97426
O          4.10305        26.90677         1.80102
O          5.63516        23.31183        -2.08316
O          8.75733        28.23829         2.23205
O          3.44558        24.50125        -1.84609
O         14.50752        14.52362        -2.47610
O         15.04725        23.20683         1.34630
O         16.18514         6.57362        -1.58325
O         18.67947        11.92320         1.57732
O          1.23683        20.13729         1.83637
O         20.28052         8.88018        -1.27722
O          3.53175        19.00917         1.61326
O          7.39648         4.70754         0.29647
O          2.59797        27.63510        -1.43344
H          1.92451        27.17293        -1.97613
O         17.87360        25.33355        -1.54368
H         17.19564        25.67451        -2.16473
O          1.32120        16.41801         2.36746
H          1.48767        17.35063         2.62617
O         13.42760         7.57943         1.02367
H         13.62664         8.50127         1.33580
O         14.57726         9.98198         1.16276
H         15.42652         9.86487         1.63957
O          1.92040         6.08986         2.69627
H          1.95794         5.12420         2.86449
O         10.04269        25.16015         1.89616
H          9.43825        25.74823         2.40038
O         10.18010        16.90263         1.14086
H          9.42323        17.33918         1.58781
O          4.34136         5.45369        -2.14894
H          4.54459         6.32000        -2.56399
O          4.58507        14.27210        -2.23281
H          3.67085        13.91465        -2.35796
H          1.19740         2.41946         0.34776
H         -0.85652         3.75099         0.84760
H         -0.71873         6.13656         1.39107
H         -0.43833         7.98210         2.00915
H         -0.57352        10.39823         1.67594
H         -0.75484        12.22094         1.19401
H         -0.74320        14.65417         1.28702
H         -0.83619        16.53171         0.20496
H         -0.88033        18.96479         0.12614
H         -0.95133        20.92372         0.41755
H         -0.98315        23.30616        -0.06368
H         -0.97635        25.19574         0.15156
H         -0.97194        27.57495         0.69297
H          0.29754        29.72387         1.07970
H          3.58630         2.29373        -0.08284
H          2.44772        30.93577         1.24776
H          5.75293         2.08089        -0.92680
H          4.95108        30.89615         1.24699
H          8.71387         2.09496        -1.32319
H          7.31400        30.94306         1.03240
H         10.87649         2.31814         0.11149
H          9.84743        31.00369         0.67630
H         12.97086         2.58660         1.25865
H         12.19775        31.03748         0.10209
H         15.56641         2.80064         2.03806
H         14.30055        31.11718        -0.96539
H         17.80096         3.11752         2.84781
H         16.84150        30.74149        -2.00551
H         19.95477         4.33416         2.76699
H         21.36471         6.00430         2.02968
H         21.82903         8.09817         0.79944
H         22.05457        10.12421         0.28453
H         21.87901        12.43552         0.96000
H         21.53691        14.26979         1.84851
H         21.48829        16.71024         2.00155
H         21.66846        18.57859         1.68579
H         21.65207        20.99895         1.87922
H         21.59452        22.89112         2.21558
H         21.84163        25.25057         1.65826
H         21.85956        27.88829        -1.25305
H         21.31811        29.98753        -2.53055
H         19.00975        30.91177        -2.38609
