         630
 CSIRO Nanostructure Databank - Neutral Graphene Oxide Data Set
C         23.06368        27.41699         0.16595
C         23.03959        28.80938         0.10758
C         22.99124        31.75721        -0.29415
C         23.00633        33.14260        -0.35990
C         22.99985        36.14477        -0.18094
C         23.01864        37.48257         0.04647
C         23.07008        40.43091         0.22359
C         23.09644        41.79799         0.36980
C         23.13569        44.70343         0.77610
C         23.15351        46.05916         0.97493
C         25.42330        24.55356        -0.03052
C         24.29744        25.27042         0.18608
C         25.48927        27.40825        -0.25112
C         24.25758        26.70254         0.00355
C         25.48570        28.86480        -0.19545
C         24.22412        29.57006        -0.03188
C         25.39978        31.76652         0.12977
C         24.16956        31.00382        -0.06775
C         25.40985        33.21115        -0.12004
C         24.22266        33.89290        -0.29935
C         25.46369        36.08909         0.09013
C         24.26324        35.40276        -0.53559
C         25.47540        37.48394         0.26692
C         24.24817        38.23313         0.14993
C         25.50563        40.34078         0.46535
C         24.26541        39.65200         0.28489
C         25.53270        41.76369         0.58932
C         24.31547        42.50661         0.56545
C         25.58604        44.61020         0.87608
C         24.34473        43.93839         0.73455
C         25.61445        46.03421         1.04202
C         24.38946        46.75864         1.12368
C         25.62513        48.80573         1.54827
C         24.41717        48.14871         1.37585
C         27.98594        23.10581        -0.27920
C         27.95585        24.50508        -0.31792
C         26.63955        25.19456        -0.64055
C         27.95265        27.35456        -0.66038
C         26.66965        26.68553        -0.41852
C         27.96165        28.88435        -0.65723
C         26.68822        29.56063        -0.32651
C         27.96231        31.75064        -0.29135
C         26.73028        30.97865         0.01081
C         27.95189        33.18684         0.06225
C         26.70655        33.97303        -0.25864
C         27.95715        35.99304         0.54221
C         26.63533        35.26375         0.55252
C         27.93771        37.43229         0.96866
C         26.69370        38.18448         0.56547
C         27.98138        40.29142         0.65697
C         26.72485        39.58914         0.57987
C         28.00758        41.70748         0.69180
C         26.78419        42.44848         0.73037
C         28.06616        44.54319         0.96232
C         26.82067        43.86667         0.86310
C         28.10586        45.98570         1.06316
C         26.85075        46.73720         1.15333
C         28.17402        48.83007         1.67371
C         26.85010        48.12246         1.41398
C         28.18369        50.30755         1.32297
C         30.41315        23.08694        -0.07886
C         29.18174        22.40756        -0.15452
C         30.41590        24.51322        -0.10334
C         29.18030        25.22266        -0.23443
C         30.41701        27.36488        -0.18649
C         29.21556        26.65465        -0.35066
C         30.42850        28.82012        -0.14882
C         29.24408        29.53155        -0.32408
C         30.46509        31.66844         0.17643
C         29.26205        30.99438        -0.30929
C         30.34566        33.06737         0.59567
C         29.11279        33.83967         0.33332
C         30.42303        35.98708         0.56097
C         29.13706        35.29397         0.51416
C         30.42408        37.42852         0.47647
C         29.21252        38.15127         0.61613
C         30.45031        40.26247         0.41803
C         29.21455        39.56008         0.57726
C         30.47455        41.68607         0.46691
C         29.25789        42.40450         0.65893
C         30.54850        44.49559         0.74435
C         29.29574        43.82060         0.80732
C         30.63137        45.94142         1.15915
C         29.31075        46.65566         1.02838
C         30.63519        48.79559         1.03361
C         29.28315        48.14592         0.84114
C         30.64842        50.28584         1.05572
C         29.32297        50.96224         1.04580
C         32.84265        20.21558        -0.03229
C         31.69428        20.93528         0.03937
C         32.87371        23.08795        -0.12219
C         31.66951        22.37299        -0.07758
C         32.88871        24.51402        -0.02527
C         31.65367        25.22946        -0.03872
C         32.88669        27.36235         0.13523
C         31.65762        26.65693        -0.01986
C         32.87986        28.80121         0.25453
C         31.66986        29.51922         0.12936
C         32.88526        31.68070         0.60430
C         31.65158        30.95634         0.32831
C         32.87733        33.06677         0.69492
C         31.63379        33.83012         0.81597
C         32.88192        35.98338         0.44029
C         31.63164        35.29558         0.60981
C         32.88441        37.38709         0.19413
C         31.64796        38.11499         0.25760
C         32.87368        40.24909        -0.01783
C         31.66044        39.54607         0.21277
C         32.90931        41.65423         0.03273
C         31.70671        42.38118         0.30859
C         32.96777        44.51815         0.16229
C         31.73227        43.80485         0.42308
C         32.96999        45.93376         0.14907
C         31.80291        46.67430         0.54137
C         32.94309        48.80040         0.03081
C         31.81502        48.05658         0.53015
C         32.91053        50.19991        -0.07693
C         31.83912        50.98449         0.49371
C         32.95634        53.10468        -0.13282
C         31.89650        52.35273         0.54875
C         35.40446        18.76107         0.34413
C         35.40383        20.09531        -0.26331
C         34.10951        20.84615        -0.41717
C         35.41572        23.08523        -0.12945
C         34.13965        22.37998        -0.38176
C         35.38285        24.49555         0.06173
C         34.12968        25.21609         0.05511
C         35.35811        27.33978         0.36499
C         34.11922        26.63525         0.18318
C         35.31838        28.75656         0.57620
C         34.12240        29.49152         0.51494
C         35.34252        31.63804         0.74478
C         34.14306        30.94188         0.65044
C         35.40295        33.10634         0.86145
C         34.10897        33.85578         0.85750
C         35.34434        35.95289         0.29576
C         34.11651        35.28824         0.50187
C         35.33270        37.35645         0.00217
C         34.11065        38.05188        -0.04684
C         35.36802        40.21899        -0.37094
C         34.06647        39.48042        -0.52102
C         35.36549        41.63459        -0.38386
C         34.14769        42.36894        -0.18459
C         35.38459        44.50194        -0.41219
C         34.16216        43.78821        -0.15338
C         35.37706        45.92617        -0.44120
C         34.15759        46.65393        -0.21467
C         35.34582        48.78431        -0.61153
C         34.13778        48.06466        -0.31517
C         35.32874        50.19077        -0.77985
C         33.97321        50.84461        -0.95762
C         35.30816        53.05750        -1.13912
C         34.01828        52.36469        -0.87839
C         35.28996        54.42403        -1.41756
C         37.83068        18.82016         0.66364
C         36.57392        18.15539         0.71521
C         37.89888        20.19696         0.36483
C         36.70078        20.89159        -0.17746
C         37.85425        23.08377         0.08946
C         36.64331        22.38105        -0.09422
C         37.84817        24.48936         0.23086
C         36.60847        25.20931         0.23624
C         37.85107        27.34224         0.55386
C         36.59360        26.63173         0.39509
C         37.84730        28.72438         0.70895
C         36.58242        29.42928         0.90784
C         37.88388        31.68692         0.70579
C         36.61642        30.95390         0.96055
C         37.86302        33.09973         0.47463
C         36.63912        33.83092         0.51175
C         37.83009        35.92947         0.05503
C         36.60319        35.22311         0.30479
C         37.79982        37.35158        -0.19989
C         36.57985        38.05830        -0.22975
C         37.81043        40.18353        -0.65695
C         36.57589        39.48622        -0.41131
C         37.77794        41.60947        -0.81800
C         36.60182        42.33971        -0.59594
C         37.81118        44.50452        -0.86677
C         36.60686        43.79066        -0.64155
C         37.81328        45.93639        -0.87319
C         36.58850        46.64346        -0.66185
C         37.79492        48.78443        -0.88698
C         36.57892        48.06969        -0.71317
C         37.77768        50.20483        -0.97988
C         36.53209        50.90439        -0.95817
C         37.74415        53.04500        -1.40359
C         36.53079        52.34488        -1.15238
C         37.70446        54.43780        -1.67638
C         36.47657        55.10026        -1.70484
C         40.24080        15.96192         0.46449
C         39.08883        16.62084         0.71084
C         40.34080        18.79111         0.71838
C         39.07195        18.07707         1.10770
C         40.34704        20.20174         0.63427
C         39.11110        20.91234         0.46669
C         40.36125        23.09417         0.42636
C         39.16042        22.32753        -0.06358
C         40.33731        24.45101         0.50874
C         39.09256        25.20426         0.39457
C         40.36207        27.29579         0.59319
C         39.09459        26.59052         0.56620
C         40.37344        28.75911         0.84090
C         39.08209        29.51007         0.94548
C         40.32266        31.71339         0.58835
C         39.09548        30.98984         0.73532
C         40.31835        33.09859         0.38930
C         39.08857        33.81078         0.30422
C         40.30317        35.94636        -0.09402
C         39.05937        35.22847         0.08611
C         40.26360        37.33520        -0.34818
C         39.03375        38.05563        -0.43439
C         40.28740        40.06898        -1.28038
C         39.01812        39.44990        -0.72311
C         40.28864        41.59047        -1.40098
C         38.99593        42.34061        -1.21954
C         40.27067        44.46358        -1.26475
C         39.06163        43.80438        -1.07110
C         40.25974        45.93994        -1.57296
C         39.02038        46.65302        -1.08108
C         40.27263        48.77752        -1.03474
C         39.02798        48.06089        -1.01986
C         40.25626        50.21353        -1.05819
C         39.01072        50.92231        -1.13516
C         40.23208        53.02106        -1.51987
C         39.00542        52.32595        -1.35922
C         40.24538        54.45060        -1.86909
C         38.93513        55.19194        -2.14585
C         40.06977        57.28909        -1.25458
C         38.96390        56.63174        -1.67014
C         42.70958        15.94877         0.19668
C         41.51890        16.64461         0.42046
C         42.78301        18.77029         0.35456
C         41.54608        18.07318         0.52637
C         42.80140        20.20091         0.45522
C         41.59766        20.89411         0.58829
C         42.87972        23.06820         0.58191
C         41.58921        22.35920         0.92429
C         42.87694        24.45632         0.52504
C         41.60625        25.17678         0.91612
C         42.75608        27.30302        -0.01417
C         41.55795        26.61973         0.50074
C         42.76328        28.80518        -0.04893
C         41.64730        29.51797         0.63047
C         42.81827        31.70725         0.00104
C         41.63427        31.01363         0.57490
C         42.81290        33.08046        -0.07658
C         41.62960        33.85163         0.48750
C         42.76993        35.94128        -0.29812
C         41.55492        35.27079        -0.01224
C         42.79528        37.35231        -0.41681
C         41.53147        38.08106        -0.28815
C         42.80009        40.23394        -0.85546
C         41.52151        39.55017        -0.58292
C         42.78351        41.63440        -1.08890
C         41.55023        42.34765        -1.24724
C         42.78892        44.48916        -1.32666
C         41.53559        43.75440        -1.30394
C         42.78055        45.94958        -1.24886
C         41.54158        46.65444        -1.22003
C         42.74350        48.75835        -0.69688
C         41.49664        48.04385        -1.01494
C         42.72121        50.27787        -0.70623
C         41.46247        50.95734        -1.04019
C         42.69314        53.10117        -1.06284
C         41.46305        52.35693        -1.26001
C         42.67605        54.49879        -0.97120
C         41.49299        55.23223        -1.44916
C         42.41711        57.28941        -0.47457
C         41.34968        56.64621        -1.07476
C         43.92292        16.63119         0.06897
C         45.24007        18.76055        -0.00865
C         43.98163        18.03484         0.13100
C         45.27576        20.15529         0.24226
C         44.07776        20.91170         0.42756
C         45.37385        23.11359         0.67615
C         44.09368        22.32080         0.47163
C         45.30988        24.50154         0.08577
C         44.08223        25.18851         0.18559
C         45.21492        27.29449        -0.39640
C         44.04737        26.58893        -0.09479
C         45.16355        28.74937        -0.82975
C         44.01965        29.53348        -0.24200
C         45.23319        31.61365        -0.61520
C         44.02277        30.93003        -0.29359
C         45.19917        33.05982        -1.01711
C         43.99039        33.80873        -0.48651
C         45.20930        35.90236        -1.04131
C         43.98777        35.18335        -0.51990
C         45.23386        37.37060        -0.72039
C         44.01149        38.07032        -0.61199
C         45.23946        40.22097        -0.80561
C         44.00328        39.51489        -0.72554
C         45.22417        41.61684        -1.00344
C         44.01777        42.34948        -1.14961
C         45.28622        44.49922        -1.52052
C         44.00427        43.77775        -1.32599
C         45.29181        46.00308        -1.38327
C         44.00330        46.68165        -1.14857
C         45.24729        48.80822        -0.85801
C         44.02915        48.07436        -0.91183
C         45.24484        50.26829        -0.76933
C         43.99366        51.00590        -0.85307
C         45.17330        53.19874        -0.84068
C         43.94157        52.38983        -0.91408
C         45.09009        54.59289        -0.37200
C         43.80724        55.26357        -0.50867
C         43.64964        56.62902        -0.25974
C         47.62532        18.76675        -0.62540
C         46.41815        18.09318        -0.41852
C         47.74849        20.12920        -0.35060
C         46.58589        20.83494         0.21080
C         47.79392        23.03522        -0.30358
C         46.65192        22.34538         0.34583
C         47.73063        24.47588        -0.50296
C         46.49304        25.18510        -0.28735
C         47.67345        27.32416        -0.70641
C         46.45411        26.59911        -0.48976
C         47.67490        28.76351        -0.71230
C         46.46638        29.48133        -0.66242
C         47.71304        31.61213        -0.62528
C         46.46262        30.90158        -0.65223
C         47.71861        33.06717        -0.57531
C         46.49772        33.78719        -0.72039
C         47.71646        35.90480        -0.57581
C         46.49941        35.18069        -0.71952
C         47.71709        37.34220        -0.57969
C         46.47324        38.05838        -0.68304
C         47.70621        40.16007        -0.49662
C         46.48203        39.48376        -0.67093
C         47.65946        41.62835        -0.38694
C         46.52492        42.31414        -1.06658
C         47.81619        44.54139        -0.90076
C         46.59065        43.78436        -1.30499
C         47.78984        45.98919        -0.86266
C         46.54417        46.70231        -1.01361
C         47.76582        48.82737        -0.72473
C         46.48935        48.09361        -0.86045
C         47.74060        50.31896        -0.55858
C         46.42792        50.97815        -0.60026
C         47.59498        53.13924         0.05325
C         46.47972        52.44680        -0.61869
C         47.45858        54.49234         0.30286
C         46.24161        55.20129         0.09228
C         50.20617        20.21982        -0.64633
C         48.97585        20.86562        -0.53228
C         50.08326        23.00034        -1.30963
C         48.92146        22.31062        -0.63925
C         50.14902        24.48538        -1.00116
C         48.88978        25.18829        -0.84857
C         50.11462        27.35427        -1.01654
C         48.89370        26.62648        -0.84515
C         50.12524        28.74423        -0.97511
C         48.91492        29.47072        -0.78017
C         50.19394        31.59354        -0.61244
C         48.91895        30.89556        -0.67236
C         50.19888        33.01913        -0.10741
C         48.92913        33.77376        -0.42727
C         50.18799        35.92052        -0.32332
C         48.94296        35.19022        -0.42539
C         50.18413        37.33079        -0.31906
C         48.93910        38.04706        -0.42044
C         50.16713        40.20849        -0.17722
C         48.93068        39.47461        -0.36124
C         50.17719        41.61393        -0.11658
C         48.92170        42.38945        -0.19334
C         50.24810        44.48755        -0.38259
C         48.95527        43.82896        -0.54667
C         50.24206        46.01286        -0.31822
C         48.95472        46.69731        -0.45937
C         50.09016        48.80344         0.20621
C         48.95953        48.10147        -0.26409
C         50.04744        50.24073         0.40210
C         48.87641        50.99095         0.10340
C         49.90610        52.99578         1.00745
C         48.78858        52.37256         0.40754
C         51.41609        20.94045        -0.87077
C         52.63679        23.07493        -1.55180
C         51.40442        22.27384        -1.16984
C         52.58561        24.37001        -0.72696
C         51.33709        25.15635        -1.02748
C         52.61898        27.32625        -0.77145
C         51.39885        26.62896        -1.34824
C         52.64654        28.76207        -0.83435
C         51.39431        29.48779        -1.32692
C         52.62975        31.68802        -0.96681
C         51.35949        30.93780        -0.87073
C         52.66954        33.12842        -0.62955
C         51.46055        33.79596        -0.42571
C         52.67293        35.93330        -0.34941
C         51.44112        35.21372        -0.32438
C         52.65941        37.36877        -0.22357
C         51.42441        38.05709        -0.20796
C         52.61713        40.18858         0.14620
C         51.40619        39.48836        -0.08997
C         52.60384        41.60768         0.31053
C         51.39006        42.32158         0.11361
C         52.50801        44.42050         0.69819
C         51.39083        43.74261         0.19020
C         52.39290        45.87259         1.00402
C         51.31950        46.68728         0.41173
C         52.43650        48.77288         1.11905
C         51.26333        48.06208         0.62852
C         52.42138        50.19169         1.18365
C         51.18082        50.91587         0.94314
C         51.07405        52.28894         1.24596
C         55.05705        23.04371        -0.92802
C         53.95809        22.37870        -1.34434
C         55.06885        24.47909        -0.65684
C         53.86249        25.17008        -0.72733
C         54.98713        27.26212        -0.03573
C         53.78108        26.58883        -0.52544
C         55.01494        28.81156        -0.11120
C         53.83219        29.46713        -0.67283
C         55.20085        31.65412        -0.82107
C         53.91014        30.91046        -0.99556
C         55.18414        33.10530        -0.59007
C         53.91739        33.83083        -0.59185
C         55.16517        36.02222        -0.70571
C         53.90156        35.23079        -0.44838
C         55.14263        37.40216        -0.06787
C         53.89811        38.08465        -0.03443
C         55.06568        40.19710         0.51013
C         53.86242        39.48552         0.22790
C         55.04284        41.61385         0.74916
C         53.78316        42.32090         0.66634
C         54.90041        44.36657         1.52041
C         53.69889        43.69829         0.97280
C         54.86454        45.85999         1.78914
C         53.58691        46.61125         1.57426
C         54.85595        48.76469         1.63320
C         53.63822        48.07607         1.41310
C         54.81812        50.17461         1.65153
C         53.62750        50.86493         1.46905
C         57.55916        24.50464        -0.25924
C         56.31028        25.17469        -0.34942
C         57.45958        27.28357         0.24008
C         56.27427        26.56151        -0.05277
C         57.47233        28.73534         0.26624
C         56.33197        29.45384        -0.10473
C         57.60300        31.62070         0.09633
C         56.45414        30.87846        -0.43973
C         57.59241        33.03433         0.05775
C         56.39380        33.75322        -0.32545
C         57.66769        35.94574         0.09485
C         56.45077        35.23118        -0.44059
C         57.57983        37.38379         0.42754
C         56.33202        38.08349         0.28202
C         57.50040        40.18852         0.90568
C         56.29433        39.48724         0.58886
C         57.49093        41.61071         1.04266
C         56.23992        42.31569         0.98617
C         57.37722        44.45671         1.48056
C         56.21527        43.73029         1.29174
C         57.34749        45.88202         1.74585
C         56.13009        46.60841         1.75049
C         57.35139        48.69370         1.94726
C         56.11990        48.02637         1.78771
C         58.70610        25.17925         0.11477
C         59.88741        27.29579         0.64992
C         58.68894        26.57741         0.34958
C         59.88758        28.66770         0.75105
C         58.70897        29.43537         0.52089
C         59.87050        31.60026         0.99395
C         58.72425        30.86952         0.55557
C         59.87706        32.96942         0.99041
C         58.75462        33.74211         0.55069
C         59.85672        35.87326         1.23588
C         58.77397        35.15241         0.66217
C         59.86219        37.24813         1.29464
C         58.71998        38.02953         0.91865
C         59.90167        40.19534         1.31875
C         58.72332        39.47403         1.06797
C         59.89401        41.59071         1.37036
C         58.70585        42.31519         1.24538
C         59.85880        44.51461         1.84615
C         58.71506        43.82738         1.13943
C         59.79589        45.82991         2.13485
C         58.56597        46.58597         1.96070
C         58.54339        47.98301         2.07931
O         30.87962        49.50160         2.29643
O         32.89892        52.99692        -1.59616
O         50.67116        45.29823        -1.53628
O         34.80354        33.57978         2.13229
O         28.60672        31.52598        -1.58231
O         47.01264        21.50427         1.48832
O         30.83483        33.35208         1.95692
O         54.76808        44.89925         2.88696
O         41.23051        54.86097        -2.86609
O         57.50361        35.66886        -1.36979
O         34.07050        21.62373        -1.64405
O         54.75437        28.08911         1.14466
O         42.37531        28.05427        -1.26622
O         56.16001        31.22274        -1.84634
O         41.42544        39.13065         0.80299
O         39.49973        41.97061        -2.58094
O         46.11975        53.00022        -1.93729
O         45.32972        45.34639        -2.71072
O         53.29015        31.34489        -2.26242
O         27.97884        28.13173        -1.91747
O         52.51660        46.15973         2.45340
O         36.27086        20.27264        -1.43546
O         42.66870        49.51940         0.56420
O         42.03533        30.28571         1.80470
O         39.79245        29.05244         2.15737
O         46.87238        42.82711        -2.39812
O         26.18533        31.33261         1.31021
O         47.98716        42.13367         0.95107
O         48.07581        49.71155        -1.86707
O         36.59589        30.15892         2.19459
O         24.39722        35.54973        -1.99762
H         24.59441        36.49267        -2.18118
O         40.41238        39.55022        -2.63809
H         39.88314        40.15123        -3.21354
O         33.57130        50.52074        -2.32765
H         32.92713        51.21670        -2.59357
O         50.21462        32.88772         1.36274
H         50.07664        33.78240         1.74064
O         41.47469        22.39922         2.38856
H         41.61571        23.34180         2.66345
O         33.86329        39.37839        -1.98981
H         33.82828        40.29399        -2.34110
O         28.97402        48.37548        -0.56897
H         28.12617        47.92313        -0.76746
O         51.45357        29.48167        -2.79205
H         52.18195        30.10974        -3.03791
O         45.08554        35.83917        -2.52315
H         45.83742        36.34335        -2.90284
O         28.44298        48.67453         3.08175
H         29.34651        49.04584         3.23985
O         39.03255        18.08756         2.58800
H         39.88890        17.72708         2.90283
O         49.78379        22.98327        -2.75222
H         50.54742        23.43147        -3.19163
O         27.86818        37.36834         2.45943
H         28.73646        37.03365         2.77386
O         40.18552        46.01410        -3.04908
H         39.44751        45.43500        -3.33673
O         39.36664        22.18194        -1.51635
H         38.58483        21.71033        -1.87913
O         41.62661        25.19388         2.39679
H         40.87361        25.74698         2.69949
O         52.52463        23.43104        -2.95793
H         52.79251        22.65495        -3.49266
O         38.78951        55.27301        -3.59332
H         39.69972        55.38787        -3.95388
O         45.05621        33.05540        -2.47756
H         45.00690        34.00456        -2.76170
O         51.55666        26.69762        -2.80290
H         51.50722        27.65748        -3.05366
O         52.44892        23.90520         0.65594
H         52.47075        24.68769         1.24635
O         26.84809        34.37656        -1.64757
H         27.00280        33.57438        -2.19001
O         55.12613        36.28731        -2.14228
H         56.06586        36.34919        -2.43676
O         26.48183        25.04495        -2.10327
H         27.10633        25.67012        -2.53163
O         41.90249        33.96784         1.92870
H         41.92062        33.05999         2.30281
O         58.92430        44.09459        -0.29610
H         58.95597        45.06864        -0.40788
O         45.40360        23.36567         2.12061
H         45.84401        22.58059         2.52548
O         30.92125        45.92476         2.60945
H         30.13582        45.55084         3.06314
O         26.37249        34.91734         1.94368
H         26.58327        35.71735         2.48125
O         44.89891        28.70345        -2.28093
H         43.96681        28.38896        -2.37729
H         22.13003        26.86631         0.35055
H         22.07950        29.32658         0.23989
H         22.03245        31.23672        -0.42867
H         22.05523        33.66520        -0.52965
H         22.03205        35.62823        -0.25139
H         22.06309        38.00555         0.19478
H         22.10286        39.93705         0.06185
H         22.14538        42.34423         0.32227
H         22.16647        44.19945         0.66845
H         22.21214        46.62485         1.02740
H         25.41600        23.46883         0.14509
H         23.38655        24.77344         0.55327
H         25.61740        49.87635         1.79289
H         23.46999        48.70022         1.46121
H         27.05443        22.53403        -0.38380
H         27.23794        50.86954         1.31791
H         29.14838        21.31079        -0.15885
H         29.28517        52.03224         0.79152
H         32.81450        19.14027         0.18882
H         30.76298        20.40632         0.28151
H         33.16654        54.13375         0.22925
H         31.11436        52.92332         1.06896
H         34.45460        18.23697         0.51194
H         34.33104        54.95685        -1.46681
H         36.52788        17.13752         1.12622
H         36.42362        56.16119        -1.97980
H         40.22750        14.88156         0.25369
H         38.14413        16.05890         0.72967
H         40.00027        58.35659        -0.99359
H         38.03848        57.21156        -1.79644
H         42.69015        14.85263         0.11357
H         42.31792        58.34571        -0.18530
H         44.83712        16.04347        -0.08675
H         44.49364        57.21641         0.12595
H         48.48442        18.20437        -1.01686
H         46.38380        17.01990        -0.64534
H         48.28959        55.05555         0.74936
H         46.21946        56.25902         0.39026
H         50.26713        19.13001        -0.52098
H         49.87290        54.06260         1.26446
H         52.36357        20.38333        -0.82823
H         51.92299        52.81964         1.69684
H         55.99950        22.48600        -0.83281
H         54.04463        21.31504        -1.61585
H         55.73430        50.75180         1.83192
H         53.65078        51.96202         1.50684
H         57.62524        23.42922        -0.47007
H         57.38487        49.78918         2.00873
H         59.65899        24.63665         0.19617
H         60.82437        26.73460         0.77645
H         60.83643        29.17878         0.96197
H         60.76160        31.06699         1.34963
H         60.78175        33.48390         1.33855
H         60.73123        35.33493         1.62393
H         60.74131        37.75030         1.71892
H         60.86178        39.67287         1.42275
H         60.85286        42.11022         1.49919
H         60.80475        43.97587         1.99703
H         60.67139        46.35620         2.54459
H         59.48358        48.52485         2.25580
