         424
 CSIRO Nanostructure Databank - Neutral Graphene Oxide Data Set
C          1.15585         3.42214         0.88909
C          0.00241         4.13242         0.87026
C          1.17443         6.29925         0.77877
C         -0.00031         5.56810         0.84231
C          1.17322         7.74480         0.56450
C         -0.06149         8.51350         0.55097
C          1.13939        10.49026        -0.34936
C         -0.08315         9.82725         0.23137
C          1.14300        12.00907        -0.30861
C         -0.04588        12.73959        -0.51830
C          1.11887        14.88618        -0.41690
C         -0.04855        14.15744        -0.44520
C          1.12168        16.39256        -0.27401
C         -0.01242        17.05448        -1.01158
C          1.27417        19.11919        -1.20788
C          0.06902        18.36294        -1.37398
C          1.26028        20.59230        -1.53728
C          0.04183        21.28092        -0.98297
C          1.26609        23.37443        -0.68643
C          0.06988        22.60216        -0.63605
C          1.25702        24.78599        -0.15025
C          0.02336        25.60152        -0.46302
C          1.28897        27.62574         0.17619
C          0.02057        26.92854        -0.27765
C          1.24263        29.14044         0.10623
C          0.09077        29.77392         0.61374
C          1.11671        31.96235         0.45562
C          0.02230        31.14571         0.81237
C          1.14170        33.40361         0.68197
C         -0.02075        34.12901         1.04192
C          1.22405        36.22636         1.09581
C          0.00903        35.50448         1.21259
C          1.26274        37.67668         1.18449
C          3.58351         3.41022         0.19490
C          2.49160         4.09994         1.02484
C          3.64359         6.27380         0.64412
C          2.44466         5.59316         0.76649
C          3.65225         7.75865         0.89631
C          2.37941         8.43254         0.44037
C          3.60013        10.54817         0.27234
C          2.40673         9.83995         0.17638
C          3.56103        12.02508         0.26935
C          2.33790        12.71123        -0.15512
C          3.66046        14.90922        -0.24020
C          2.41122        14.14497        -0.61590
C          3.65533        16.33510        -0.43025
C          2.45308        17.04574        -0.59827
C          3.74023        19.14282        -0.98825
C          2.47321        18.44610        -0.89994
C          3.75558        20.59548        -1.10183
C          2.53320        21.30407        -1.14606
C          3.74571        23.43263        -0.79410
C          2.51021        22.70914        -0.90381
C          3.69226        24.87877        -0.71233
C          2.51573        25.54739        -0.50738
C          3.71181        27.79663        -0.49464
C          2.41946        27.04629        -0.69713
C          3.67012        29.19968        -0.46394
C          2.37674        29.90141        -0.25901
C          3.27668        32.22688        -0.56380
C          2.24562        31.33128        -0.14581
C          3.51354        33.46813        -0.01578
C          2.36955        34.12954         0.55951
C          3.73078        36.23169         0.89770
C          2.40458        35.52349         0.80852
C          3.66780        37.73129         0.69437
C          2.40252        38.38509         0.94087
C          6.08864         3.48356         0.10800
C          4.89637         4.15992         0.27515
C          6.11255         6.30590         0.32201
C          4.89070         5.58037         0.44214
C          6.11114         7.75313         0.32330
C          4.90629         8.46621         0.46128
C          6.10930        10.60258         0.26568
C          4.87516         9.87887         0.38207
C          6.12452        12.05484         0.23934
C          4.85328        12.79524         0.30554
C          6.11478        14.93245        -0.00509
C          4.85467        14.24034        -0.02269
C          6.12895        16.34040        -0.22849
C          4.91391        17.03195        -0.46894
C          6.22622        19.08236        -0.97203
C          4.92412        18.42574        -0.79179
C          6.25492        20.61248        -1.06729
C          4.97611        21.31811        -0.98085
C          6.24262        23.43717        -0.76431
C          4.98715        22.73899        -0.85482
C          6.25506        24.91155        -0.86107
C          4.94434        25.65422        -0.88384
C          6.16347        27.72520        -0.21981
C          4.94629        27.08710        -0.51256
C          6.15995        29.14943        -0.10111
C          4.95812        29.85767        -0.41680
C          6.21890        32.00416        -0.28679
C          5.13727        31.21311        -0.72784
C          6.13852        33.43713        -0.24421
C          4.81785        34.16264        -0.28685
C          6.13393        36.31349         0.20962
C          4.83976        35.61604         0.07029
C          6.10624        37.74759         0.27030
C          4.82559        38.41800         0.43237
C          8.55184         3.48603        -0.06560
C          7.33669         4.17928         0.06064
C          8.56802         6.32681        -0.05979
C          7.33240         5.61231         0.11906
C          8.56767         7.76362        -0.05632
C          7.33665         8.47016         0.11375
C          8.56896        10.66484        -0.20267
C          7.31343         9.88922         0.12381
C          8.58166        12.00677         0.51437
C          7.31082        12.77505         0.24087
C          8.59155        14.90387         0.13526
C          7.33029        14.20557         0.15077
C          8.62253        16.30757         0.01259
C          7.39267        17.04893        -0.21604
C          8.75703        19.10574        -0.73715
C          7.43910        18.39438        -0.54052
C          8.68480        20.60849        -0.53415
C          7.50145        21.31238        -0.69054
C          8.70537        23.45087        -0.43522
C          7.47120        22.75225        -0.61260
C          8.78040        24.94730        -0.63269
C          7.46497        25.64509        -0.45170
C          8.63157        27.68882         0.25634
C          7.42587        26.99704        -0.16400
C          8.53090        29.10730         0.60637
C          7.34762        29.87429         0.17302
C          8.58549        32.03727         0.41233
C          7.38434        31.28840         0.14717
C          8.54327        33.43967         0.32569
C          7.32087        34.14015         0.07882
C          8.56304        36.32181         0.16888
C          7.32410        35.60036         0.16777
C          8.54353        37.75087         0.01357
C          7.29876        38.44555         0.10884
C         11.01356         3.47809        -0.23717
C          9.78214         4.18094        -0.18637
C         11.02639         6.33280        -0.61295
C          9.76653         5.60933        -0.23274
C         11.04210         7.77552        -0.18630
C          9.82340         8.47733        -0.09000
C         11.05314        10.59616         0.14874
C          9.84906         9.90068         0.03159
C         11.06394        12.06008         0.21670
C          9.85238        12.76797         0.24121
C         11.07485        14.88684         0.15680
C          9.83691        14.18131         0.19449
C         11.06847        16.31373         0.15207
C          9.86816        17.00365         0.07172
C         11.16127        19.17562        -0.06917
C          9.83041        18.50892         0.17829
C         11.14299        20.60845        -0.20594
C          9.91530        21.30731        -0.31079
C         11.14277        23.45154        -0.06290
C          9.90487        22.74231        -0.28266
C         11.09655        24.86546         0.22463
C          9.93349        25.59921         0.09163
C         11.06236        27.74279         0.73768
C          9.85895        27.01434         0.40924
C         11.09181        29.14227         0.81013
C          9.82662        29.89133         0.86701
C         11.05731        32.03013         0.68822
C          9.82987        31.34873         0.67042
C         11.07408        33.47389         0.55692
C          9.76885        34.21115         0.76774
C         10.99875        36.31661         0.07573
C          9.79034        35.63519         0.27811
C         10.98178        37.71958        -0.25460
C          9.75732        38.42391        -0.21614
C         13.48223         3.45569        -0.09132
C         12.26273         4.15974        -0.20806
C         13.49674         6.29077        -0.15389
C         12.28451         5.58971        -0.25909
C         13.51217         7.73725        -0.12424
C         12.27870         8.46216        -0.09115
C         13.53717        10.56976         0.14593
C         12.29905         9.88281         0.09931
C         13.57851        12.03234         0.51321
C         12.29639        12.76946         0.22973
C         13.57183        14.89520         0.02181
C         12.31052        14.16812         0.19835
C         13.57366        16.26464        -0.05341
C         12.36757        17.03992         0.41501
C         13.60628        19.17609        -0.20992
C         12.34688        18.48494        -0.01229
C         13.60384        20.62600        -0.20256
C         12.38161        21.32475        -0.15357
C         13.61683        23.45863         0.13734
C         12.36337        22.75690        -0.02734
C         13.62269        24.83577         0.44351
C         12.33361        25.49783         0.72096
C         13.61755        27.68709         0.87301
C         12.32056        26.98788         0.94327
C         13.62183        29.16983         1.17391
C         12.31099        29.89741         0.90403
C         13.57641        32.06336         1.03715
C         12.28576        31.29085         0.85094
C         13.53713        33.51548         0.58675
C         12.26241        34.18479         0.43606
C         13.43979        36.29749        -0.12692
C         12.25907        35.62122         0.15468
C         13.42216        37.67020        -0.58587
C         12.19454        38.36122        -0.60469
C         15.95032         3.43936         0.06448
C         14.71753         4.13855        -0.02708
C         15.96184         6.27985         0.01335
C         14.72814         5.57409        -0.04714
C         15.97668         7.71082        -0.00396
C         14.74092         8.43329        -0.04639
C         16.00791        10.57438         0.01374
C         14.74964         9.86560         0.03629
C         16.02831        12.00332        -0.05430
C         14.81468        12.74901         0.02516
C         16.05928        14.83954        -0.31593
C         14.81110        14.13311        -0.14787
C         16.07262        16.27477        -0.37711
C         14.75714        16.98360        -0.65565
C         16.05318        19.18382        -0.77412
C         14.77927        18.47030        -0.39535
C         16.06936        20.66346        -0.41753
C         14.84931        21.34470        -0.21767
C         16.08326        23.47330         0.10255
C         14.85076        22.75927         0.00493
C         16.07132        24.87675         0.36448
C         14.83675        25.55874         0.54360
C         16.11880        27.73850         0.96112
C         14.80170        27.00257         0.75400
C         16.08251        29.17007         0.46803
C         14.77921        29.84045         0.46778
C         16.01128        32.04021         0.33829
C         14.73079        31.33612         0.36229
C         15.97885        33.43428         0.60310
C         14.73241        34.20003         0.50004
C         15.93633        36.49354        -0.07564
C         14.74753        35.55461        -0.20562
C         15.89596        37.73034        -0.80742
C         14.61560        38.30750        -1.02815
C         18.42183         3.42467         0.20925
C         17.17207         4.12485         0.12250
C         18.42461         6.26379         0.14226
C         17.18689         5.55951         0.09264
C         18.44176         7.69256         0.10573
C         17.21225         8.41321         0.04312
C         18.47343        10.54532        -0.05771
C         17.22163         9.84754         0.00146
C         18.48146        11.95501        -0.22354
C         17.27378        12.68719        -0.21809
C         18.52815        14.84340        -0.29218
C         17.28037        14.12856        -0.30127
C         18.52558        16.27161        -0.24074
C         17.27220        16.97096        -0.31518
C         18.56581        19.14090        -0.53497
C         17.26271        18.47574        -0.12491
C         18.56910        20.65960        -0.57956
C         17.28845        21.37791        -0.36214
C         18.57614        23.48979        -0.04067
C         17.31689        22.76864        -0.09313
C         18.58073        24.90193         0.13064
C         17.31819        25.62114         0.32392
C         18.55458        27.73872        -0.00352
C         17.31799        26.99344         0.44121
C         18.53343        29.23543         0.21195
C         17.25374        29.89896         0.28551
C         18.47406        32.07606         0.28955
C         17.23532        31.35227         0.26677
C         18.46027        33.49100         0.50017
C         17.20637        34.03268         0.86629
C         18.41319        36.56915        -0.05379
C         17.16054        36.14180         0.46103
C         18.37147        37.78856        -0.80854
C         17.11517        38.39157        -1.08901
C         19.61191         4.10618         0.26050
C         20.87245         6.25058         0.27777
C         19.64679         5.53447         0.22777
C         20.89376         7.62838         0.24191
C         19.69024         8.39331         0.15447
C         20.92035        10.57872         0.22978
C         19.70035         9.81756         0.08035
C         20.96190        11.91442         0.01664
C         19.78023        12.64433        -0.56709
C         20.95535        14.84279        -0.19277
C         19.76293        14.13336        -0.29721
C         20.96102        16.23803        -0.09636
C         19.77396        16.97637        -0.15407
C         20.98726        19.16967        -0.18232
C         19.82089        18.43228        -0.24262
C         20.99257        20.59102        -0.19807
C         19.83940        21.34665        -0.30324
C         21.01974        23.51234        -0.02268
C         19.81773        22.79001        -0.12634
C         21.01291        24.88950         0.17216
C         19.80960        25.60068         0.23686
C         21.02968        27.85919         0.11726
C         19.80985        27.08525         0.57312
C         20.96788        29.19541        -0.04856
C         19.72166        29.94191         0.11693
C         20.88678        32.18346         0.22133
C         19.72235        31.39539         0.19285
C         20.84093        33.58346         0.24489
C         19.63938        34.30990         0.35795
C         20.78995        36.40973        -0.35963
C         19.61310        35.77515         0.07352
C         20.78635        37.69111        -0.94660
C         19.60689        38.35873        -1.22344
O         14.40067        30.50755        -0.78978
O          8.95983        29.44124         1.97222
O         18.58739        19.84411        -1.82248
O         17.19438        35.25016         1.53561
O          4.60783        35.21518        -1.31310
O         12.23833        26.04882         2.08726
O          6.39745        19.77031        -2.27415
O          4.10248        12.55058         1.56496
O          4.17376        31.79385        -1.54569
O          5.66021        25.39884        -2.14638
O          1.11566        10.18156        -1.79339
H          1.05463         9.20612        -1.87860
O          9.43224        18.82826         1.54127
H         10.14784        18.51724         2.13641
O         12.47969        17.09783         1.89195
H         12.61656        16.17903         2.20935
O         19.92092        12.53125        -2.03378
H         19.90205        11.57503        -2.25204
O         13.89784        32.06492         2.45735
H         13.20588        32.57849         2.92347
O          1.26740        24.62589         1.33327
H          2.03912        24.06212         1.55668
O          2.01377        27.26902        -2.08141
H          2.73525        26.94441        -2.66095
O         14.86151        35.15193        -1.63319
H         14.06660        34.61954        -1.85286
O         17.12390        18.70672         1.30774
H         17.76057        18.12724         1.77628
O          1.54580        27.32784         1.56561
H          1.39149        26.35750         1.70591
O         18.63870        27.54635        -1.45100
H         17.88925        28.02430        -1.86426
O          3.64123         7.88469         2.37119
H          3.70659         8.84166         2.57965
O          3.18678         3.32467        -1.18282
H          3.15172         4.23245        -1.54845
O         19.73945        27.18830         2.01696
H         20.52697        26.74717         2.39630
O         11.01481         6.37994        -2.10551
H         11.86129         6.79151        -2.38369
O         13.70235        12.04912         1.98988
H         12.95678        11.52129         2.34822
O          4.18385        36.02918         2.28178
H          3.52845        36.45667         2.87266
O          9.09420        25.12641        -2.07268
H          8.28413        24.89440        -2.57760
O          2.55723        14.01758        -2.10203
H          1.78599        13.49838        -2.42054
O          1.16379        20.68614        -3.01262
H          1.19278        21.63939        -3.24214
O          9.15342        18.87400        -2.11305
H          8.40129        19.17282        -2.67538
O          0.89412        16.65397         1.16402
H          0.82042        17.62589         1.27354
O         16.14209        19.05805        -2.22304
H         17.02086        19.43633        -2.49160
O          8.52221        10.95241        -1.63211
H          8.56019        10.09940        -2.11351
O         13.89655        29.27647         2.60843
H         13.18131        28.80211         3.08427
O          9.63694        34.31615         2.23826
H          9.50208        33.40729         2.58318
O         16.29359        27.82056         2.41510
H         15.53646        28.35975         2.75968
O          2.91030         3.93645         2.41639
H          2.35426         4.52635         2.96747
O         14.56094        16.85155        -2.10886
H         15.13816        17.53667        -2.53177
O          8.58552        11.70931         1.94394
H          8.46738        12.55239         2.42935
H          1.13610         2.32258         0.89476
H         -0.96679         3.61323         0.83890
H         -0.97393         6.07509         0.81291
H         -0.98966         8.02848         0.88582
H         -1.02987        10.38414         0.27894
H         -1.00493        12.21571        -0.62668
H         -1.02238        14.66458        -0.38506
H         -0.95058        16.50448        -1.16905
H         -0.79705        18.84897        -1.84606
H         -0.90665        20.72795        -0.93267
H         -0.85510        23.08288        -0.28497
H         -0.88391        25.08771        -0.81443
H         -0.88457        27.51535        -0.49789
H         -0.75885        29.15075         0.92729
H         -0.87355        31.58054         1.27598
H         -0.97995        33.60263         1.14454
H         -0.91849        36.04809         1.44313
H          0.31970        38.20655         1.38437
H          3.71437         2.36324         0.56269
H          2.37522        39.48540         0.93380
H          6.08660         2.38856         0.00041
H          4.80606        39.51776         0.37323
H          8.54980         2.38584        -0.07603
H          7.29350        39.54466         0.05924
H         11.00372         2.37857        -0.20436
H          9.75457        39.51178        -0.38002
H         13.47035         2.35625        -0.05537
H         12.17382        39.41740        -0.91241
H         15.94335         2.33940         0.08519
H         14.54589        39.31579        -1.46337
H         18.41056         2.32524         0.23382
H         17.09441        39.36890        -1.59340
H         20.56217         3.55626         0.32712
H         21.81617         5.68936         0.34104
H         21.86410         8.14200         0.27024
H         21.83134        10.06464         0.56769
H         21.91504        12.44393         0.15192
H         21.92163        14.32247        -0.21478
H         21.92931        16.75130        -0.03307
H         21.95281        18.66901        -0.02881
H         21.96038        21.08414        -0.03557
H         21.98568        22.99592        -0.09344
H         21.97462        25.41157         0.27100
H         21.99892        27.34939         0.01207
H         21.87985        29.74926        -0.31578
H         21.87425        31.70309         0.17744
H         21.80248        34.10943         0.17553
H         21.75945        35.90066        -0.28303
H         21.74604        38.13088        -1.25334
H         19.61531        39.31493        -1.76515
