         204
 CSIRO Nanostructure Databank - Neutral Graphene Oxide Data Set
C        -11.13347         0.64413         0.15393
C         -9.90749         1.40628         0.08301
C         -8.66724         0.68026        -0.01481
C         -7.43704         1.41262        -0.09977
C         -6.20289         0.70766        -0.20338
C         -4.97245         1.43356        -0.28002
C         -3.72928         0.72255        -0.43120
C         -2.47325         1.44705        -0.61930
C         -1.25870         0.75972        -0.87941
C         -0.03837         1.45484        -0.97378
C          1.23970         0.70952        -1.33201
C          2.49983         1.44253        -0.90176
C          3.69680         0.71185        -0.71131
C          4.90906         1.40285        -0.42768
C          6.12405         0.67313        -0.18627
C          7.28522         1.35240         0.27984
C          8.55027         0.69715         0.41988
C          9.82861         1.41757         0.57737
C         11.02219         0.60089         0.69222
C         -9.90159         2.79911         0.11852
C         -8.68346         3.54908         0.06645
C         -7.44264         2.83164        -0.05841
C         -6.20698         3.54896        -0.08952
C         -4.98382         2.83714        -0.19790
C         -3.68308         3.55510         0.01604
C         -2.45640         2.85555        -0.52325
C         -1.25033         3.55842        -0.70377
C         -0.03934         2.86145        -0.91697
C          1.24496         3.60181        -1.06222
C          2.50823         2.85476        -0.85170
C          3.70805         3.56769        -0.60128
C          4.90744         2.82493        -0.41086
C          6.10286         3.49836        -0.01588
C          7.11146         2.74217         0.54491
C          9.05358         3.81499         0.59599
C         10.06784         2.79107         0.48824
C         -8.66618         4.95322         0.14929
C         -7.44755         5.68685         0.11879
C         -6.21722         4.97879         0.00142
C         -4.97809         5.70748        -0.08348
C         -3.77663         5.01861        -0.27901
C         -2.54651         5.77061        -0.48802
C         -1.25738         5.04869        -0.73833
C          0.00359         5.78983        -0.47708
C          1.26438         5.10038        -0.81141
C          2.52030         5.73821        -0.38040
C          3.72101         5.00822        -0.36050
C          4.94098         5.70250        -0.06938
C          6.21964         4.96947        -0.16121
C          7.54817         5.72536        -0.04185
C          8.89601         5.05045         0.04463
C         -7.41805         7.11215         0.21417
C         -6.21290         7.83003         0.19008
C         -4.97917         7.13992         0.01449
C         -3.72751         7.84375         0.11164
C         -2.52805         7.17054        -0.06053
C         -1.24873         7.76267         0.45835
C          0.00843         7.09065        -0.04262
C          1.25290         7.81263         0.10966
C          2.49325         7.11700        -0.01827
C          3.71767         7.80200         0.23183
C          4.95173         7.08689         0.16271
C          6.20568         7.78344         0.42017
C          7.42220         7.13382         0.36345
C         -6.16580         9.26738         0.37804
C         -4.98501         9.94713         0.47206
C         -3.70864         9.27820         0.37721
C         -2.49641         9.95292         0.45004
C         -1.23105         9.27181         0.39288
C         -0.01724         9.91837         0.45748
C          1.24080         9.20199         0.40281
C          2.46789         9.87527         0.60493
C          3.69325         9.19524         0.54899
C          4.94832         9.86009         0.81414
C          6.13281         9.18892         0.76560
C        -11.12841        -0.72002         0.14594
C         -9.89632        -1.47122         0.06893
C         -8.66056        -0.73241        -0.01807
C         -7.42466        -1.45009        -0.09013
C         -6.19307        -0.71714        -0.17673
C         -4.95823        -1.40637        -0.21375
C         -3.74989        -0.66797        -0.38339
C         -2.50869        -1.43761        -0.59394
C         -1.24427        -0.71710        -0.91654
C          0.04221        -1.41617        -0.69487
C          1.23167        -0.73474        -0.86883
C          2.47709        -1.43656        -0.75181
C          3.71430        -0.73324        -0.74289
C          4.93766        -1.44925        -0.64046
C          6.17393        -0.73465        -0.38556
C          7.39758        -1.40774        -0.21417
C          8.56691        -0.71093         0.19018
C          9.78459        -1.48136         0.42021
C         10.99983        -0.75861         0.69196
C         -9.87617        -2.86245         0.08605
C         -8.64915        -3.59977         0.02336
C         -7.40979        -2.86384        -0.07323
C         -6.16690        -3.57548        -0.11047
C         -4.93246        -2.84556        -0.13958
C         -3.71043        -3.53882        -0.03284
C         -2.44372        -2.74591         0.14963
C         -1.18154        -3.51643        -0.10901
C          0.02039        -2.82621        -0.38724
C          1.24970        -3.54721        -0.39923
C          2.47393        -2.84736        -0.59217
C          3.70226        -3.57462        -0.61815
C          4.93591        -2.86818        -0.64139
C          6.17965        -3.60980        -0.55088
C          7.49101        -2.85163        -0.65858
C          8.63517        -3.61808        -0.03236
C          9.77661        -2.86327         0.41161
C         -8.62118        -4.99789         0.06346
C         -7.39318        -5.73680        -0.00879
C         -6.14264        -4.99035        -0.07795
C         -4.89944        -5.68452        -0.01138
C         -3.67689        -4.94333         0.07271
C         -2.43173        -5.63092         0.28606
C         -1.17456        -4.89738         0.17974
C          0.06355        -5.58379         0.24899
C          1.27054        -4.93700        -0.09026
C          2.51484        -5.67226        -0.17795
C          3.68567        -4.99889        -0.55712
C          4.93528        -5.72510        -0.99725
C          6.18778        -4.97719        -0.59468
C          7.49690        -5.71040        -0.77016
C          8.63141        -4.97947        -0.09804
C         -7.36773        -7.12292         0.00068
C         -6.10402        -7.88526        -0.30148
C         -4.85903        -7.10754         0.04634
C         -3.65536        -7.76440         0.32782
C         -2.44570        -7.01813         0.47062
C         -1.21328        -7.71390         0.89005
C          0.09227        -6.94201         0.81059
C          1.38914        -7.68395         0.82570
C          2.56004        -7.06582         0.18099
C          3.74168        -7.80804         0.06096
C          4.91108        -7.25546        -0.71533
C          6.23978        -7.85580        -0.32051
C          7.40277        -7.15876        -0.35173
C         -6.06575        -9.29110         0.23737
C         -4.90444        -9.90443         0.54599
C         -3.62340        -9.20889         0.52632
C         -2.43527        -9.87645         0.73331
C         -1.16270        -9.19580         0.84371
C          0.03386        -9.87198         0.88567
C          1.35239        -9.21088         0.95230
C          2.59161        -9.92446         0.60070
C          3.75567        -9.24135         0.33197
C          5.03717        -9.92942         0.25282
C          6.20269        -9.27126         0.02321
O         -0.62899        -7.07377         2.07561
O          1.27872         0.65462        -2.79210
H          1.30698         1.57632        -3.12685
O          6.96326         5.41325        -1.36625
O         -2.04365        -1.39014        -1.97219
O         -1.27841         7.43810         1.90508
H         -1.98192         7.98806         2.31217
O          4.96610        -5.61674        -2.46390
H          4.56743        -6.48369        -2.77037
O         -2.39405        -2.35736         1.56660
H         -2.34893        -3.17957         2.09981
O          7.75079        -5.66247        -2.22358
H          6.86624        -5.80475        -2.65229
O          4.36275        -7.91683        -1.86330
O         -6.09842        -8.03251        -1.77613
H         -6.09331        -7.12804        -2.15646
O         -3.46487         3.52878         1.49474
H         -4.30225         3.81816         1.91781
O          7.78278        -2.80233        -2.09177
H          7.86778        -3.74520        -2.38894
O          7.98449         3.38755         1.41449
O          1.61120        -8.32681         2.11254
O         -1.98472         5.57616        -1.90299
O          1.28763         4.54024        -2.18513
H         11.92794        -1.32912         0.84299
H         11.97927         1.12461         0.83631
H         11.11669         3.10887         0.37020
H          9.69098         5.48572        -0.57927
H          8.33268         7.67530         0.66353
H          7.07462         9.71878         0.97235
H          4.92957        10.93114         1.06439
H          2.45767        10.95122         0.83550
H          0.01380        11.01567         0.54745
H         -2.49535        11.05055         0.53893
H         -4.99120        11.03538         0.63405
H         -7.11835         9.80980         0.47135
H         -8.36700         7.65576         0.33664
H         -9.61661         5.49961         0.24328
H        -10.85496         3.34248         0.20326
H        -12.08530         1.19195         0.21924
H        -12.07599        -1.27585         0.20466
H        -10.82381        -3.41764         0.15826
H         -9.56730        -5.55540         0.13568
H         -8.31639        -7.68099         0.03427
H         -7.01306        -9.84996         0.27769
H         -4.90532       -10.95908         0.86224
H         -2.44545       -10.97202         0.84225
H          0.02525       -10.96874         0.78184
H          2.60271       -11.02408         0.65622
H          5.05036       -11.00747         0.47322
H          7.15920        -9.81371         0.07606
H          8.34479        -7.67680        -0.10685
H          9.49471        -5.55716         0.26896
H         10.69345        -3.40896         0.68491
