         404
 CSIRO Nanostructure Databank - Neutral Graphene Oxide Data Set
C          1.30561         2.17006        -1.49218
C          1.28029         3.55780        -1.25448
C          2.49542         1.46948        -1.45348
C          2.45315         4.26392        -0.96370
C          1.34763         6.49533        -1.00504
C          1.37120         7.90988        -0.82100
C          2.45449         5.70483        -0.71677
C          2.44042         8.55259        -0.26060
C          1.49567        10.85495        -0.71584
C          1.50606        12.18318        -0.57287
C          2.32592         9.98994         0.20332
C          2.33586        12.81056         0.53244
C          1.25313        15.03964         0.22937
C          1.26859        16.42885         0.11268
C          2.44062        14.30892         0.36763
C          2.48720        17.12860         0.12840
C          2.52605        18.56064        -0.00933
C          3.71677         2.14307        -1.16255
C          3.69083         3.55322        -0.89446
C          4.94393         1.44949        -1.15792
C          4.90039         4.23768        -0.58797
C          3.66063         6.33840        -0.24633
C          3.56062         7.72992         0.33330
C          4.87064         5.64542        -0.24025
C          4.87113         8.47768         0.40830
C          3.66283        10.66697         0.48182
C          3.67619        12.08794         0.60540
C          4.83289         9.88272         0.61760
C          4.85771        12.82264         0.81031
C          3.68075        14.98319         0.42323
C          3.70800        16.40520         0.28864
C          4.90934        14.25939         0.66037
C          4.95040        17.10657         0.29076
C          3.71196        19.23393        -0.02191
C          4.96470        18.53374         0.10486
C          6.15632         2.12315        -0.91087
C          6.12502         3.52860        -0.60402
C          7.40357         1.44188        -0.97616
C          7.35798         4.22131        -0.38159
C          6.11431         6.33420         0.04529
C          6.09449         7.75490         0.35580
C          7.32997         5.64081        -0.07300
C          7.34274         8.42845         0.50604
C          6.06260        10.57342         1.05541
C          6.08582        12.07305         1.14393
C          7.38569         9.84397         0.93039
C          7.42128        12.79289         1.08458
C          6.12729        14.98049         0.69820
C          6.16852        16.39148         0.45391
C          7.40431        14.28888         0.96179
C          7.41634        17.10154         0.30111
C          6.17676        19.21855         0.02910
C          7.41758        18.52528         0.07990
C          8.61399         2.12354        -0.79399
C          8.56849         3.53297        -0.51971
C          9.88110         1.43515        -0.88362
C          9.86749         4.27131        -0.54524
C          8.58439         6.32626         0.12702
C          8.56097         7.73854         0.39986
C          9.80807         5.66020         0.01991
C          9.79338         8.46536         0.43290
C          8.61942        10.62798         0.66351
C          8.63056        12.05052         0.66553
C          9.78390         9.88025         0.38563
C          9.78049        12.78443         0.22887
C          8.69755        14.99783         0.65995
C          8.65243        16.42173         0.27656
C          9.86540        14.19068         0.25604
C          9.86489        17.09583         0.01836
C          8.63717        19.21106        -0.09453
C          9.87137        18.52533        -0.14509
C         11.09402         2.04199        -0.55903
C         11.02731         3.42369         0.07533
C         12.34528         1.37595        -0.61576
C         12.29680         4.23808        -0.18755
C         11.04550         6.33397         0.31448
C         11.04275         7.77145         0.42636
C         12.25698         5.62563         0.30463
C         12.25831         8.49538         0.36981
C         10.98090        10.53992        -0.16226
C         10.92370        12.03486        -0.34044
C         12.29153         9.85917        -0.04980
C         12.21264        12.74735        -0.59199
C         11.06924        14.89590        -0.09289
C         11.09154        16.36287        -0.11658
C         12.24055        14.18551        -0.35668
C         12.26541        17.05926        -0.41939
C         11.10523        19.20288        -0.34377
C         12.31268        18.49524        -0.48070
C         13.58404         2.03448        -0.39798
C         13.59664         3.51227        -0.26687
C         14.82837         1.40243        -0.46650
C         14.83440         4.20027         0.15381
C         13.50435         6.24398         0.68979
C         13.50971         7.83164         0.69199
C         14.79309         5.56328         0.49352
C         14.78376         8.47710         0.40428
C         13.50920        10.51666        -0.25639
C         13.53311        11.94970        -0.62813
C         14.77452         9.83432        -0.03882
C         14.80426        12.66840        -0.56323
C         13.53689        14.87894        -0.38871
C         13.48948        16.31723        -0.77492
C         14.83509        14.12299        -0.53600
C         14.78609        17.03742        -0.98255
C         13.57643        19.16732        -0.61503
C         14.80486        18.50476        -0.76614
C         16.06408         2.10459        -0.26761
C         16.05901         3.49514         0.16448
C         17.28916         1.48265        -0.52923
C         17.26018         4.14919         0.58351
C         16.00271         6.29121         0.67560
C         15.98668         7.74177         0.54599
C         17.23086         5.57905         0.80495
C         17.21450         8.44557         0.40046
C         16.00871        10.50075        -0.23194
C         16.01438        11.85053        -0.92308
C         17.22162         9.83245         0.05935
C         17.31625        12.64509        -0.76196
C         16.06641        14.89146        -0.88761
C         16.05247        16.25839        -0.93151
C         17.34935        14.13783        -0.87546
C         17.30575        17.03761        -1.09317
C         16.05144        19.16926        -0.70795
C         17.29854        18.49893        -0.83439
C         18.51718         2.12618        -0.20593
C         18.47439         3.36355         0.51988
C         19.77900         1.56095        -0.50277
C         19.70077         3.75221         1.10385
C         18.43224         6.37903         0.95799
C         18.44653         7.77167         0.63339
C         19.65585         5.83810         1.38037
C         19.67457         8.49485         0.65792
C         18.46568        10.54686         0.12613
C         18.40514        12.01691         0.04639
C         19.66010         9.92006         0.48051
C         19.62769        12.81544         0.37934
C         18.59142        14.87679        -0.51408
C         18.62176        16.30259        -0.88070
C         19.71939        14.23686        -0.04464
C         19.81666        17.08168        -0.56625
C         18.52208        19.16380        -0.68658
C         19.78771        18.48556        -0.57055
C         21.01833         2.13615        -0.12041
C         20.98263         3.31850         0.72633
C         22.21063         1.52817        -0.64470
C         22.13605         4.19485         1.01482
C         20.91328         6.41780         1.08746
C         20.91097         7.81375         0.82498
C         22.12495         5.63861         1.05385
C         22.15443         8.52899         0.82215
C         20.88575        10.68333         0.69188
C         20.86728        12.07047         0.65225
C         22.13970         9.96420         0.85883
C         22.05522        12.86977         0.98486
C         20.98504        14.92209         0.08564
C         21.05825        16.32865        -0.35909
C         22.12488        14.29609         0.59082
C         22.31632        17.11112        -0.06825
C         20.99892        19.21483        -0.30508
C         22.21536        18.58752        -0.01155
C         23.47524         1.69272        -0.05358
C         23.40268         3.58934         1.03691
C         24.76063         1.49220        -0.54703
C         24.62490         4.24718         0.76919
C         23.36150         6.35352         0.89407
C         23.36501         7.80829         0.85694
C         24.58199         5.65849         0.71406
C         24.60613         8.53852         0.84632
C         23.35156        10.65498         1.01166
C         23.35817        12.11219         1.20175
C         24.59724         9.96403         0.97675
C         24.61734        12.86412         1.10608
C         23.36936        14.99826         0.80701
C         23.43324        16.42926         0.61776
C         24.55785        14.27830         1.11457
C         24.56370        17.18572         0.91049
C         23.40840        19.28794         0.27790
C         24.60404        18.60881         0.62001
C         25.91112         2.08668         0.12771
C         25.85753         3.49502         0.57092
C         27.10970         1.40478         0.15078
C         27.07983         4.20100         0.61863
C         25.81636         6.39988         0.28498
C         25.83711         7.85074         0.70554
C         27.09641         5.65474         0.59015
C         27.04903         8.56247         0.71363
C         25.82976        10.69636         1.01129
C         25.84880        12.15689         1.11339
C         27.03261         9.98455         0.85755
C         27.07436        12.87866         1.20553
C         25.78069        15.01299         1.49274
C         25.75326        16.53870         1.49478
C         27.08557        14.31644         1.39628
C         27.05361        17.28916         1.50329
C         25.83531        19.30235         0.67157
C         27.06654        18.66796         0.96145
C         28.28306         1.97495         0.90057
C         28.31446         3.47034         0.70178
C         29.60121         1.30564         0.61409
C         29.53127         4.13678         0.70979
C         28.28137         6.36076         0.56736
C         28.31244         7.82568         0.62296
C         29.54715         5.59441         0.48603
C         29.51123         8.50646         0.70158
C         28.27659        10.75770         0.68287
C         28.32137        12.18340         1.07866
C         29.57735         9.98362         0.60719
C         29.54183        12.83970         1.21389
C         28.27787        15.02261         1.44681
C         28.35982        16.50421         1.54194
C         29.55957        14.29228         1.48463
C         29.59900        17.19850         1.09116
C         28.29231        19.30274         0.76019
C         29.54522        18.60778         0.80338
C         30.80448         1.99250         0.69114
C         30.77752         3.44066         0.80019
C         32.09359         1.31849         0.69141
C         31.97593         4.13068         1.13497
C         30.85148         6.31254         0.58076
C         30.80485         7.80526         0.56489
C         32.04387         5.61590         1.17086
C         32.07672         8.55006         0.74877
C         30.80182        10.70902         0.97011
C         30.79971        12.13063         1.07078
C         32.03924         9.98194         1.11697
C         32.01060        12.83690         0.91408
C         30.85504        15.06817         1.32331
C         30.80982        16.50898         0.95736
C         32.10245        14.29649         1.01132
C         31.99235        17.17936         0.50516
C         30.72977        19.28509         0.46247
C         31.95985        18.60038         0.29994
C         33.22147         1.97597         1.15440
C         33.04316         3.32864         1.55931
C         34.61090         1.36487         1.40463
C         34.90371         4.42693         1.40799
C         33.38795         6.40944         1.15967
C         33.37253         7.83964         0.79684
C         34.66306         5.69732         0.95204
C         34.48478         8.53462         0.34386
C         33.37622        10.71851         0.75830
C         33.16748        12.11945         0.36365
C         34.48887         9.95946         0.19801
C         34.37221        12.82510        -0.24384
C         33.29301        15.01966         0.43091
C         33.20626        16.48113         0.19685
C         34.42054        14.28447        -0.17748
C         34.33593        17.15003        -0.25399
C         33.15189        19.28355        -0.05665
C         34.35152        18.58663        -0.31486
C         35.84068         2.15150         0.89080
C         35.92970         3.57403         0.87073
C         36.96443         1.43757         0.45846
C         37.03921         4.23850         0.26540
C         35.68501         6.29617         0.07451
C         35.63662         7.78204        -0.18242
C         36.99229         5.63339        -0.01369
C         36.87985         8.49576        -0.49884
C         35.60781        10.63259        -0.37745
C         35.61525        12.07020        -0.46361
C         36.79990         9.88882        -0.67565
C         36.77322        12.80242        -0.76272
C         35.57723        14.94961        -0.52015
C         35.51140        16.41345        -0.85518
C         36.79095        14.22612        -0.76803
C         36.83729        17.11052        -0.71234
C         35.58203        19.24876        -0.57791
C         36.81734        18.54805        -0.70069
C         38.16485         2.07995         0.03556
C         38.19755         3.49760        -0.08659
C         39.35350         1.35798        -0.30483
C         39.35799         4.19331        -0.54225
C         38.12440         6.34159        -0.47970
C         38.08455         7.76422        -0.69930
C         39.35134         5.61785        -0.68721
C         39.30281         8.46834        -1.02093
C         37.98445        10.57604        -1.20732
C         37.98019        12.10149        -1.22379
C         39.28041         9.88085        -1.19848
C         39.26577        12.80683        -1.18346
C         38.03947        14.93087        -0.87993
C         38.03340        16.39384        -0.80468
C         39.25000        14.22256        -0.98043
C         39.28443        17.10334        -0.87648
C         38.04169        19.23582        -0.81448
C         39.26672        18.53670        -0.90943
C         40.49275         2.01865        -0.70547
C         40.53345         3.44430        -0.82812
C         41.70263         4.14810        -1.21955
C         40.54017         6.30318        -1.06294
C         40.52814         7.75119        -1.17758
C         41.70655         5.52797        -1.31697
C         41.69756         8.50662        -1.45443
C         40.46433        10.62723        -1.43315
C         40.45028        12.08374        -1.42775
C         41.67516         9.88643        -1.55380
C         41.65098        12.86530        -1.67320
C         40.57410        14.91110        -0.72835
C         40.52866        16.41489        -0.92567
C         41.69533        14.19946        -1.44826
C         41.70924        17.14813        -1.00685
C         40.49805        19.24516        -1.01782
C         41.69270        18.55789        -1.06909
O         18.55200        12.62396         1.38359
O         34.04457         3.87612         2.37527
O         13.95562        16.61254        -2.13275
O         22.54451        12.58026         2.33682
O         27.78564        17.11972         2.74713
O         37.74429        11.32732        -2.45098
O         35.21117         6.81679        -1.21811
O         23.43714         2.21499         1.26619
O         33.26177        12.32481        -1.09421
O         19.63791         4.67810         2.15736
O         32.59544         6.18433         2.38466
O          6.78923        12.46351         2.36394
O         25.54422        15.79149         2.72256
O         13.46667         7.04083         1.90613
O         28.92069        10.50595        -0.61326
O         18.09664        16.60561        -2.23694
O         10.87905         3.26601         1.43288
O         22.06982        16.56692        -1.41465
O          6.70949         9.98898         2.22527
O         31.51781         8.35583        -0.61284
O         33.22869        14.71208         1.88530
O         14.32561        14.63088         0.83073
O         32.98908        10.40542         2.12340
O         17.68547        13.24983        -2.03912
O         30.36731        14.72898         2.65579
O         12.80606        12.34554        -1.86354
O         30.40236         5.83259        -0.72121
O         12.94655         4.11138        -1.48119
O         10.61215        11.14770        -1.46059
O          8.22665        14.84818         2.05006
O         25.75185         6.42704        -1.18875
H         26.57022         6.86204        -1.51269
O         40.84675        14.73188         0.71024
H         40.92120        13.76781         0.87433
O          1.65217        12.60394         1.79404
H          1.53190        11.62581         1.91070
O         34.75523         1.19314         2.82161
H         34.66863         2.08210         3.23298
O         28.03524         1.74026         2.34816
H         27.09710         1.97304         2.51901
O          1.63532         9.89368         1.49842
H          2.13761         9.21514         2.01674
O         15.86238        11.53139        -2.33761
H         16.31379        12.25169        -2.84115
O         10.24070         4.40950        -1.95093
H          9.55523         4.94946        -2.39708
O         35.23011        16.43335        -2.30827
H         35.96363        15.96092        -2.75733
O          3.15153         7.54594         1.75958
H          2.46850         6.84057         1.77025
H          0.36521         1.64629        -1.71331
H          0.31390         4.07886        -1.29172
H          2.51377         0.38796        -1.64961
H          0.43777         6.04711        -1.42500
H          0.48037         8.47541        -1.12995
H          0.89095        10.38514        -1.50521
H          0.90122        12.82514        -1.23170
H          0.29233        14.50629         0.23001
H          0.32565        16.98421         0.00670
H          1.57546        19.10370        -0.11411
H          4.95727         0.37231        -1.38109
H          3.73287        20.32702        -0.14035
H          7.40973         0.36180        -1.18699
H          6.17770        20.30863        -0.12011
H          9.87094         0.39077        -1.23852
H          8.62203        20.30311        -0.22836
H         12.36513         0.29921        -0.85507
H         11.10748        20.30114        -0.41112
H         14.87644         0.32422        -0.68508
H         13.58097        20.26518        -0.53388
H         17.30852         0.47193        -0.96279
H         16.06041        20.25477        -0.52577
H         19.80205         0.62456        -1.08001
H         18.51199        20.25610        -0.55254
H         22.11336         0.89711        -1.54091
H         20.95229        20.31401        -0.28801
H         24.92944         0.89640        -1.45616
H         23.42352        20.38515         0.19876
H         27.16750         0.38508        -0.25659
H         25.85109        20.36253         0.37715
H         29.60936         0.20760         0.53238
H         28.29722        20.35143         0.42649
H         32.13729         0.25465         0.41304
H         30.69182        20.36837         0.27450
H         34.64340         0.34440         0.94590
H         33.13492        20.38071        -0.13763
H         36.93713         0.33697         0.46880
H         35.59817        20.34891        -0.60346
H         39.35258         0.26100        -0.22681
H         38.04816        20.33602        -0.82481
H         41.40112         1.44572        -0.94358
H         42.62033         3.58337        -1.43927
H         42.63675         6.02973        -1.61705
H         42.66122         7.99249        -1.57314
H         42.62150        10.41383        -1.73562
H         42.52774        12.36681        -2.11145
H         42.61811        14.75056        -1.68000
H         42.68059        16.63490        -1.00687
H         40.48238        20.34407        -1.04738
H         42.64301        19.10500        -1.14017
