         244
 CSIRO Nanostructure Databank - Neutral Graphene Oxide Data Set
C          1.43448         2.03267         1.33652
C          1.34961         3.44014         1.08011
C          2.62647         1.37705         1.42317
C          2.46720         4.21240         0.84611
C          1.21392         6.35142         0.51999
C          1.19318         7.73257         0.32072
C          2.41705         5.62777         0.49103
C          2.37693         8.45539         0.11580
C          1.17782        10.62923        -0.22157
C          1.17792        12.01443        -0.26241
C          2.37513         9.91307        -0.01860
C          2.36137        12.75137        -0.04291
C          1.18321        14.97043        -0.13257
C          1.18055        16.39435        -0.11908
C          2.34810        14.21218        -0.05988
C          2.36111        17.11258        -0.15959
C          2.45076        18.55214        -0.15977
C          3.88825         2.11966         1.39786
C          3.80161         3.62066         1.06030
C          5.15218         1.44514         1.12575
C          4.97574         4.25621         0.43378
C          3.62685         6.32840         0.19564
C          3.61068         7.74357         0.05124
C          4.87764         5.62530         0.06784
C          4.83739         8.45619        -0.17132
C          3.58313        10.63931         0.10460
C          3.57518        12.04377         0.14902
C          4.90028         9.90993         0.26130
C          4.87460        12.73972         0.51628
C          3.61274        14.89746         0.06314
C          3.61549        16.34851        -0.22067
C          4.77406        14.24981         0.45308
C          4.91299        17.09051        -0.10868
C          3.63463        19.23112        -0.04983
C          4.91661        18.56457         0.10314
C          6.28370         2.13192         0.65712
C          6.18792         3.55693         0.28179
C          7.46126         1.41011         0.41034
C          7.31964         4.23689        -0.24768
C          6.04050         6.32506        -0.35163
C          5.99610         7.75579        -0.46343
C          7.27506         5.61991        -0.49752
C          7.22593         8.48152        -0.85257
C          6.04318        10.72031        -0.33479
C          6.05929        12.08912        -0.26491
C          7.24021         9.98259        -0.82975
C          7.29828        12.80685        -0.63467
C          5.92928        15.03733         0.83738
C          6.05968        16.35486         0.45576
C          7.38089        14.18266        -1.01395
C          7.31799        17.09118         0.15893
C          6.06337        19.21107         0.46478
C          7.37572        18.48684         0.74506
C          8.54873         1.98560        -0.44172
C          8.64520         3.51527        -0.20832
C          9.87826         1.39544        -0.05674
C          9.76890         4.10351        -1.07012
C          8.49729         6.36836        -0.79143
C          8.50148         7.73569        -0.86460
C          9.75978         5.62474        -1.07436
C          9.77436         8.52242        -1.14835
C          8.55217        10.65759        -0.64537
C          8.54120        12.11585        -0.54262
C          9.71856         9.95257        -0.66064
C          9.76106        12.81631        -0.56970
C          8.55281        14.93334        -0.68679
C          8.52659        16.40480        -0.45651
C          9.77267        14.23019        -0.50021
C          9.80577        17.10205        -0.22707
C          8.59996        19.22038         0.28544
C          9.79071        18.52621         0.01529
C         11.06992         2.14606        -0.10270
C         11.08114         3.50666        -0.58007
C         12.29239         1.57121         0.34725
C         12.29391         4.20784        -0.66964
C         11.04854         6.37079        -1.01264
C         10.99168         7.80546        -0.54057
C         12.33855         5.64845        -0.90433
C         12.29998         8.53137        -0.74923
C         11.00566        10.64818        -0.26275
C         11.04054        12.06301        -0.82734
C         12.29039         9.92117        -0.61704
C         12.29423        12.78862        -0.40318
C         11.02307        14.94138        -0.31994
C         11.01465        16.37255        -0.18817
C         12.25121        14.23321        -0.21563
C         12.25270        17.06594        -0.00759
C         11.04054        19.20929         0.01349
C         12.26053        18.50593         0.01479
C         13.51491         2.25234         0.22050
C         13.51563         3.55001        -0.36928
C         14.72738         1.69214         0.76433
C         14.79005         4.18661        -0.74136
C         13.51287         6.36324        -0.97855
C         13.51834         7.81997        -0.91662
C         14.79853         5.62549        -1.29742
C         14.74855         8.53696        -0.86126
C         13.50722        10.64754        -0.59785
C         13.47964        12.09057        -0.40856
C         14.74185         9.94259        -0.66051
C         14.78321        12.85577        -0.33664
C         13.44680        14.92112         0.10245
C         13.46230        16.33940         0.15744
C         14.62754        14.08509         0.57301
C         14.71217        17.04654         0.25269
C         13.49802        19.18566         0.08492
C         14.72147        18.48289         0.16418
C         15.95313         2.32489         0.64634
C         16.03949         3.51276        -0.24786
C         17.13963         1.84033         1.28552
C         17.31301         4.29163        -0.20882
C         16.04587         6.42756        -0.97018
C         16.01952         7.80988        -0.88586
C         17.32885         5.71791        -0.69663
C         17.25656         8.57576        -0.75212
C         15.98282        10.64975        -0.33354
C         15.97038        11.98567        -0.00730
C         17.24620         9.91439        -0.40466
C         17.18298        12.65981         0.59908
C         15.96510        14.88877         0.76636
C         15.93675        16.32790         0.29076
C         17.20563        14.14600         0.31369
C         17.14176        17.01329         0.14473
C         15.95672        19.16676         0.23333
C         17.16998        18.44875         0.23380
C         18.40676         2.35131         0.96961
C         18.50440         3.42377         0.01859
C         19.65092         1.81246         1.46480
C         19.74350         3.74033        -0.48103
C         18.57464         6.44387        -1.03175
C         18.50351         7.91713        -1.31123
C         19.78404         5.82913        -1.24054
C         19.84385         8.61964        -1.04317
C         18.48302        10.66630        -0.22388
C         18.46432        11.97049         0.21023
C         19.80069        10.05590        -0.55359
C         19.69224        12.73515         0.29796
C         18.38283        14.80251         0.06875
C         18.41859        16.29358        -0.21484
C         19.65243        14.09480         0.10079
C         19.64903        16.96926         0.35837
C         18.40523        19.09728         0.47320
C         19.60771        18.36139         0.66177
C         20.87658         2.33298         1.10872
C         20.97520         3.39411         0.14243
C         22.10765         4.21693        -0.07008
C         21.06803         6.39861        -0.93092
C         21.09670         7.84659        -0.80601
C         22.13224         5.55270        -0.53515
C         22.22394         8.53854        -0.40153
C         21.02424        10.63098         0.03228
C         20.93947        11.99256         0.70648
C         22.18760         9.90654        -0.00332
C         22.18683        12.81612         0.52599
C         20.92026        14.87565        -0.15750
C         20.86313        16.27204         0.44517
C         22.17073        14.10613         0.17968
C         22.00402        16.92458         0.94607
C         20.78282        19.00404         1.13215
C         21.95355        18.27934         1.30186
O         20.00153         9.73038        -1.98639
O         17.30208         5.37094         0.79853
O          4.02304         3.16957         2.43369
O          7.06564         9.28215        -2.11684
O         16.21137        14.99685         2.17316
O         15.57549         3.27427        -1.61745
O         19.79204         4.49359        -1.65050
O          7.55022        17.13593        -1.29952
O          4.43559        16.66882        -1.42757
O         10.40143         6.12575        -2.30698
O         20.80577        11.74111         2.14372
H         19.84881        11.66379         2.34996
O         14.78865         5.49555        -2.75062
H         15.30423         4.68433        -2.96704
O         17.08781        12.51730         2.05458
H         16.76548        13.40806         2.39922
O          5.18541         9.77287         1.69054
H          5.12880        10.68506         2.08028
O         15.04279        13.39000        -1.67551
H         15.13808        12.63277        -2.29142
O          6.36727        14.72791        -1.70527
H          6.53146        15.69787        -1.84759
O          5.11339        12.42246         1.92862
H          5.94056        12.88772         2.19278
O          9.10843         3.69563         1.16367
H          8.40150         3.37608         1.76449
O         14.19945        13.62899         1.86551
H         14.80286        14.11606         2.50446
O         11.12941        11.91246        -2.27813
H         11.14824        12.80760        -2.67634
O         18.30141         7.97891        -2.76326
H         18.69317         8.83668        -3.05554
O          9.60659         3.70833        -2.45480
H         10.06701         4.40052        -2.99057
O          7.46696        18.32019         2.20362
H          7.57909        19.21006         2.59943
O         10.97386        10.73376         1.18651
H         10.88106         9.81112         1.52012
O         20.95165        15.09285        -1.61802
H         21.76683        15.59732        -1.82510
O         10.75306         7.79913         0.90347
H         11.50621         7.34388         1.33654
O          9.94791         8.62524        -2.57795
H          9.09819         8.95747        -2.94591
O          8.21348         1.61812        -1.80552
H          8.72316         2.20209        -2.41811
O          6.90636        14.42372         1.58148
H          7.61752        15.06531         1.78593
O         18.53126        16.44337        -1.67121
H         19.34883        15.94798        -1.93698
H          0.49605         1.46209         1.38723
H          0.34594         3.87515         0.97587
H          2.66146         0.27870         1.46911
H          0.26702         5.83703         0.73279
H          0.22792         8.25423         0.37284
H          0.22982        10.09381        -0.36582
H          0.23094        12.53848        -0.44831
H          0.20703        14.46695        -0.15670
H          0.21576        16.92139        -0.09200
H          1.51126        19.12175        -0.22536
H          5.20293         0.35136         1.23779
H          3.62323        20.33142        -0.03128
H          7.49156         0.33802         0.65917
H          6.03702        20.29687         0.65493
H          9.92785         0.33762         0.24587
H          8.65644        20.30350         0.47568
H         12.27851         0.56310         0.78745
H         11.05082        20.30567         0.10150
H         14.65186         0.75515         1.33626
H         13.50907        20.28573         0.07795
H         17.05241         0.98568         1.97281
H         15.96989        20.26478         0.28868
H         19.60696         0.99031         2.19442
H         18.41679        20.18676         0.62938
H         21.79202         1.95284         1.58601
H         23.05566         3.86355         0.36814
H         23.10615         6.04776        -0.38997
H         23.17789         8.00516        -0.28720
H         23.11775        10.34025         0.38972
H         23.15166        12.33133         0.73955
H         23.13030        14.63233         0.04893
H         22.95015        16.37890         1.06313
H         20.75103        20.07635         1.37241
H         22.85600        18.77174         1.68972
