         280
 CSIRO Nanostructure Databank - Neutral Graphene Oxide Data Set
C         30.43180        31.68102        -0.75095
C         30.51925        32.92210        -0.70420
C         30.63163        36.13751        -1.66492
C         30.86096        37.29930        -2.05065
C         31.28307        40.42695        -2.88487
C         31.74306        41.54316        -3.31644
C         32.76271        28.87747         0.19896
C         31.68223        29.47429        -0.14157
C         32.86027        32.04873         0.72050
C         31.11529        30.70390         0.03468
C         32.80649        33.23762         0.01594
C         31.52137        33.93555        -0.37451
C         32.95627        36.00561        -0.95620
C         31.57432        35.37164        -0.81218
C         33.12071        37.42237        -1.46355
C         31.91318        38.24308        -1.85013
C         33.10335        40.28184        -1.18006
C         31.99889        39.62079        -1.92045
C         33.02155        41.66048        -0.84388
C         32.19044        42.76582        -3.71286
C         33.79438        44.18349        -2.21688
C         33.15934        43.33697        -3.00449
C         35.35201        27.04465         1.86234
C         35.29167        28.39765         0.44007
C         34.01748        29.02737         0.72196
C         35.29001        31.70612         0.33658
C         34.11730        31.32302         0.91911
C         35.34533        33.08491        -0.32484
C         34.07526        33.92448        -0.18821
C         35.33363        36.07714         0.02764
C         34.12205        35.27908        -0.39336
C         35.53591        37.43769        -0.63682
C         34.45551        38.17361        -1.40611
C         35.43222        40.31393        -0.42099
C         34.31229        39.61270        -0.93822
C         35.36176        41.72058        -0.18429
C         34.15996        42.42522        -0.47703
C         34.34247        44.96149         0.02256
C         34.12448        43.88464        -0.86690
C         35.27207        46.01012        -0.30454
C         37.86401        27.36519         1.35230
C         36.58895        26.86992         1.64869
C         37.85153        28.70833         0.92669
C         36.54779        29.32055         0.46710
C         37.82224        31.58264         0.10585
C         36.49716        30.82594         0.15201
C         37.88104        33.11849        -0.15663
C         36.58730        33.87557         0.08969
C         37.89656        35.97082        -0.09561
C         36.59083        35.23110         0.06163
C         37.80920        37.44432         0.32540
C         36.67682        38.14059        -0.38744
C         37.90397        40.25434        -0.11067
C         36.71029        39.60453        -0.35466
C         37.87884        41.61646         0.44076
C         36.55534        42.34171         0.45707
C         37.92609        44.50298         0.24217
C         36.73920        43.79687         0.83156
C         37.83279        45.90552        -0.07103
C         36.47288        46.31412        -0.23074
C         40.77497        25.27821         2.83528
C         39.79586        25.91592         2.44563
C         40.30101        27.39103         0.73409
C         39.12861        26.54730         1.22010
C         40.33143        28.78878         1.00341
C         39.06551        29.44533         0.99578
C         39.86511        31.83470         1.46762
C         39.03712        30.89132         0.67420
C         40.23097        33.14361         0.85874
C         39.11840        33.79585         0.41201
C         40.39358        35.93558         0.30098
C         39.05277        35.27992         0.64010
C         40.31213        37.43608         0.38261
C         39.16209        38.10643         0.15462
C         40.45212        40.27315         0.15502
C         39.21399        39.53823        -0.31159
C         40.42861        41.75977        -0.04273
C         39.18966        42.38674         0.68414
C         40.42705        44.60448        -0.01674
C         39.13649        43.85194         0.28890
C         40.31123        46.09962         0.19738
C         39.02172        46.68320        -0.05346
C         40.11361        48.80657         0.03962
C         39.09895        48.09779        -0.15390
C         43.12781        25.30104         2.39506
C         42.08520        24.77646         3.14793
C         42.70557        27.47405         0.17778
C         41.49635        26.75960         0.34995
C         42.62405        28.97812        -0.15890
C         41.59467        29.52757         0.82975
C         42.86906        31.65540         0.81270
C         42.01869        30.63408         1.56296
C         42.80063        33.11245         1.32900
C         41.50229        33.83908         1.24389
C         42.85629        36.03291         0.79523
C         41.56558        35.33624         1.05650
C         42.83672        37.37302         0.47025
C         41.58210        38.14051         0.77172
C         42.87157        40.26878         0.60469
C         41.61362        39.59454         0.40667
C         42.80887        41.70944         0.90021
C         41.64857        42.47754         0.49167
C         42.95107        44.68404         0.54768
C         41.58741        43.95791         0.80372
C         42.74707        46.21943         0.86653
C         41.50755        46.85912         0.41574
C         42.58377        48.98220         0.73964
C         41.40633        48.32753         0.33938
C         43.79800        25.86429         1.49201
C         45.12262        27.29865        -0.25331
C         43.93746        26.79746         0.46295
C         45.15458        28.86937        -0.53245
C         44.00341        29.64005        -0.00950
C         45.45634        31.59264         0.24612
C         44.18313        30.91158         0.47894
C         45.73615        32.83564         0.72584
C         43.92965        33.93751         1.38520
C         45.33818        35.96534         0.67323
C         44.07266        35.28332         0.93542
C         45.32511        37.32513         0.43332
C         44.08394        38.11819         0.08872
C         45.31416        40.27870         0.69709
C         44.08793        39.57529         0.56450
C         45.36997        41.64888         1.07006
C         44.09640        42.42042         1.28964
C         45.55135        44.42892         1.08946
C         44.10955        43.99722         1.36488
C         45.95859        45.36920         0.13073
C         43.77915        47.02325         1.43335
C         43.61532        48.41582         1.17488
C         47.41810        27.43761        -0.81226
C         46.49223        26.80075        -0.26395
C         47.63394        28.84716        -0.97688
C         46.45972        29.54320        -0.76252
C         47.76796        31.76222        -0.70910
C         46.42535        31.04796        -0.77662
C         47.80170        33.10567        -0.49275
C         46.53762        33.82989        -0.06862
C         47.81200        36.05430        -0.04971
C         46.70283        35.22745         0.63554
C         47.78414        37.41035        -0.03637
C         46.60721        38.09355         0.63259
C         47.86961        40.20478         0.75571
C         46.57953        39.58334         0.23882
C         47.85741        41.47396         1.28672
C         46.61270        42.23139         1.38292
C         47.99962        44.19441         1.93756
C         46.56024        43.65608         1.96265
C         48.11830        45.07182         0.89578
C         47.38340        45.59696        -0.00283
C         49.86420        29.09544        -2.27599
C         48.94117        29.52049        -1.20956
C         50.21376        31.79950        -1.59372
C         49.02352        31.03561        -1.03811
C         50.13833        33.30790        -1.54219
C         48.82167        33.97897        -1.17021
C         49.98858        36.17156        -1.28645
C         49.08948        35.30006        -0.42538
C         50.16255        37.45020        -0.86858
C         49.00200        38.26631        -0.34840
C         50.38852        40.24253         0.71877
C         49.15507        39.32609         0.77377
C         50.43278        41.20746         1.92437
C         49.06649        41.97209         2.03056
C         50.31467        43.94378         3.11383
C         49.01682        43.41245         2.60516
C         50.59463        29.79211        -3.00112
C         51.66720        32.12346        -3.59442
C         50.55495        31.18627        -3.42989
C         51.76720        33.34803        -3.38093
C         51.09312        34.18270        -2.37807
C         51.48930        36.74341        -3.08361
C         50.60781        35.60197        -2.63275
C         51.04388        37.91363        -3.05983
C         50.54746        38.56264        -1.81894
C         52.54984        41.02773         0.00552
C         51.39003        40.20920        -0.24654
C         52.53344        41.95277         0.85759
C         51.66200        42.27797         1.88526
C         51.33573        43.44374         2.53259
O         33.24927        36.27673        -2.38526
O         38.86068        31.03076        -0.75713
O         34.06177        30.10676         1.65425
O         36.53791        29.83435        -0.91930
O         31.14989        35.03450         0.51606
O         44.76477        27.88053        -1.53578
O         43.26852        41.91022         2.35553
O         49.11877        39.04156        -1.67308
O         36.15228        44.29165         1.78219
O         41.33766        34.79977         2.39082
O         48.63342        42.27644         3.39982
O         51.45802        39.54022        -1.42871
O         31.70241        31.37497         1.17823
O         49.46722        30.07683         0.00342
O         37.02231        41.61687         1.65951
O         45.09552        33.29126         1.86914
O         35.50883        32.88183        -1.71480
O         39.82853        31.77725         2.69847
O         45.82505        31.46308        -2.11867
O         51.36610        33.90216        -0.99940
O         38.16974        35.96606        -1.52344
H         38.08232        35.01144        -1.81876
O         33.84315        44.91645         1.25502
H         34.24678        45.59524         1.83350
O         43.27285        44.49900        -0.82666
H         42.46003        44.70309        -1.36137
O         49.76077        34.99480         0.81200
H         49.10846        35.04054         1.54781
O         35.25556        27.61500        -0.66307
H         36.15747        27.38193        -0.96219
O         44.80379        46.64744         2.20593
H         44.60583        45.79969         2.68270
O         41.27500        44.17444         2.21111
H         40.59107        43.49870         2.47249
O         42.20974        29.11188        -1.52495
H         42.92250        28.73499        -2.08688
O         39.39444        39.43421        -1.78630
H         38.62328        38.94159        -2.14632
O         41.48136        25.40450         0.15777
H         42.35608        25.10948        -0.17186
O         40.23873        41.97281        -1.47857
H         40.00949        41.10092        -1.89877
O         38.05059        33.25499        -1.60312
H         37.15342        32.98074        -1.98699
O         39.45692        42.25513         2.10728
H         38.57379        42.16191         2.54678
O         34.91891        38.26209        -2.78164
H         34.70103        37.40086        -3.20752
O         44.10863        38.21105        -1.38094
H         44.91205        38.73972        -1.61934
O         42.27100        23.84293         4.09371
H         41.42333        23.60367         4.51761
O         31.81572        42.26712        -0.85069
H         31.92875        43.22703        -0.69281
O         51.37187        31.35555        -0.97096
H         51.99432        32.11659        -0.89801
O         43.82393        44.30237         2.75805
H         42.84957        44.11981         2.89729
O         45.12341        46.07090        -0.64491
H         45.62036        46.70683        -1.19408
O         42.19416        31.77937        -0.47091
H         42.74111        32.32274        -1.07575
O         47.18241        35.02664         1.98669
H         46.50032        34.49880         2.46807
O         46.78132        38.07368         2.07318
H         47.05288        37.16575         2.33884
O         40.73327        35.64013        -1.07792
H         39.96171        35.92568        -1.63253
O         48.13383        34.23910        -2.41581
H         47.20813        34.52900        -2.21741
O         46.80611        31.13962        -3.13515
H         46.38510        30.39058        -3.62429
O         49.53228        31.41243        -4.31661
H         49.58760        32.32043        -4.67777
O         49.23123        38.54365         1.97167
H         49.62305        39.10013         2.69153
O         46.21937        43.60304         3.34362
H         45.24216        43.50058         3.44331
O         45.74503        34.10963        -1.26703
H         45.64933        33.25841        -1.77284
O         50.56946        40.48921         3.15232
H         50.15133        41.03602         3.85940
O         37.47498        37.58242         1.73696
H         38.02052        36.92429         2.24164
O         46.51483        39.67294        -1.22205
H         47.42433        39.65628        -1.60373
O         41.87065        30.72246         2.89032
H         42.05181        31.63050         3.21308
O         40.71517        44.53328        -1.44569
H         40.53044        43.61225        -1.76805
O         49.64629        35.51766        -3.67241
H         49.32588        36.41497        -3.89779
O         41.52004        38.13941         2.25066
H         40.82570        38.77635         2.52548
O         35.01548        36.43336         1.41678
H         35.79542        36.94195         1.76992
O         38.79862        25.48168         0.34182
H         39.62515        24.99664         0.11998
O         38.79832        35.39700         2.06645
H         39.62530        35.10792         2.54078
