         324
 CSIRO Nanostructure Databank - Neutral Graphene Oxide Data Set
C          1.26825         3.52977         1.48294
C          0.07474         4.21697         1.64479
C          1.20825         6.37399         1.37542
C          0.04132         5.61730         1.58156
C          1.14918         7.81891         1.25103
C         -0.04245         8.53068         1.13312
C          1.11463        10.68665         0.88506
C         -0.06230         9.93279         0.99941
C          1.10538        12.20907         0.84691
C         -0.16199        12.87047         0.37898
C          1.05542        14.90031        -0.29991
C         -0.15146        14.17214        -0.03703
C          1.09935        16.32885        -0.39235
C         -0.05325        17.11086        -0.03303
C          1.06042        19.21630        -0.54132
C         -0.06515        18.48918        -0.08927
C          1.11534        20.64605        -0.58578
C         -0.09504        21.41662        -0.61737
C          1.15650        23.52550        -0.64679
C         -0.06995        22.78045        -0.69950
C          1.13933        24.93752        -0.61140
C         -0.05569        25.72699        -0.57855
C          1.20423        27.81403        -0.27276
C         -0.02468        27.09820        -0.49022
C          1.24024        29.26325        -0.30557
C          3.70703         3.55789         1.07944
C          2.47550         4.24282         1.27454
C          3.69111         6.35681         1.05490
C          2.46085         5.67205         1.24528
C          3.70456         7.82761         1.16333
C          2.40497         8.59260         1.25241
C          3.59245        10.76560         0.75194
C          2.36772        10.03662         0.92307
C          3.59106        12.09765         0.36014
C          2.29566        12.71758         0.05259
C          3.56281        14.77450        -0.90049
C          2.26648        14.10727        -0.53488
C          3.53312        16.30707        -1.14041
C          2.26408        17.00115        -0.82811
C          3.59097        19.21864        -1.04758
C          2.22082        18.44846        -0.97813
C          3.60180        20.61537        -0.61345
C          2.35812        21.33055        -0.56500
C          3.60917        23.41168        -0.23191
C          2.39446        22.77770        -0.50317
C          3.69689        24.86192        -0.33934
C          2.40894        25.67076        -0.57309
C          3.62587        27.74933         0.21797
C          2.39197        27.09163        -0.19708
C          3.64863        29.31112         0.18836
C          2.40391        29.96489        -0.23245
C          6.14017         3.43776         0.57309
C          4.89086         4.23844         0.85489
C          6.17172         6.38166         0.71459
C          4.90490         5.66715         0.84972
C          6.20845         7.80525         0.71301
C          4.91737         8.53802         0.66493
C          6.16099        10.76668         0.78229
C          4.87569        10.02213         0.59419
C          6.16038        12.24472         0.50626
C          4.82971        12.90482         0.24492
C          6.04502        14.87132        -0.69467
C          4.83627        14.18474        -0.49059
C          6.03155        16.28184        -1.01185
C          4.82168        17.01658        -1.05136
C          6.03166        19.16202        -0.91608
C          4.83493        18.44774        -0.95439
C          6.06918        20.58009        -0.66857
C          4.83195        21.23856        -0.37216
C          6.13667        23.35902        -0.01156
C          4.83164        22.62103         0.21608
C          6.15028        24.77495         0.35510
C          4.86539        25.55823         0.27316
C          6.09713        27.71485         0.37349
C          4.91870        27.03943         0.20241
C          6.13539        29.17169         0.24778
C          4.96481        29.90756         0.02410
C          8.62179         3.54762         0.68951
C          7.42509         4.22507         0.66918
C          8.62642         6.37979         0.52673
C          7.39421         5.66722         0.64266
C          8.63657         7.80526         0.43485
C          7.40865         8.51276         0.58449
C          8.75406        10.74264         0.56052
C          7.43782         9.99496         0.75653
C          8.59902        12.16110         0.00212
C          7.38918        12.86832        -0.03475
C          8.53635        14.87346        -0.89650
C          7.32951        14.21068        -0.51490
C          8.48605        16.26648        -1.31129
C          7.28533        16.96629        -1.22308
C          8.47643        19.24248        -1.61839
C          7.23176        18.44213        -1.39075
C          8.50272        20.71538        -1.30974
C          7.28610        21.31960        -0.72280
C          8.59891        23.44669        -0.34505
C          7.31935        22.72123        -0.39210
C          8.58603        24.84663         0.07891
C          7.40642        25.51963         0.33832
C          8.62389        27.70732         0.48724
C          7.35417        26.96661         0.79534
C          8.62163        29.12910         0.35959
C          7.39021        29.82928         0.24896
C         11.08975         3.52568         0.61170
C          9.88324         4.22887         0.63289
C         11.06535         6.38779         0.36660
C          9.86423         5.67187         0.50805
C         11.04655         7.78226         0.07837
C          9.84878         8.49831         0.13015
C         11.05866        10.71113        -0.32136
C          9.74306         9.95199        -0.31504
C         11.05144        12.07483        -0.35800
C          9.79144        12.82172        -0.37949
C         11.04089        14.77915        -1.27564
C          9.76836        14.16577        -0.79938
C         11.01744        16.17923        -1.79974
C          9.72428        16.96377        -1.76921
C         11.06241        19.20794        -1.63348
C          9.76124        18.48648        -1.78665
C         11.13375        20.71620        -1.48202
C          9.82066        21.46760        -1.27093
C         11.07741        23.48024        -0.33699
C          9.81769        22.81493        -0.62041
C         11.03838        24.86129         0.10193
C          9.84579        25.54776         0.25456
C         11.04571        27.72394         0.56363
C          9.83563        26.99197         0.47487
C         11.07095        29.14014         0.41991
C          9.85094        29.82646         0.27160
C         13.56663         3.51889         0.45739
C         12.34433         4.19149         0.51798
C         13.63694         6.36492         0.09801
C         12.33837         5.66454         0.50875
C         13.58494         7.76889        -0.36094
C         12.28155         8.43856        -0.42120
C         13.60481        10.61165        -0.56406
C         12.29716         9.95143        -0.58550
C         13.64718        12.06884        -0.38659
C         12.32576        12.83573        -0.34632
C         13.54868        14.87432        -1.00541
C         12.34303        14.21018        -0.84924
C         13.60670        16.31242        -1.44933
C         12.29943        16.96755        -1.90051
C         13.90243        19.47008        -1.14122
C         12.15550        18.44575        -1.95007
C         13.62234        20.68109        -0.60271
C         12.40778        21.44402        -1.00023
C         13.55892        23.44828        -0.03138
C         12.30644        22.80571        -0.39902
C         13.61553        24.95283         0.01267
C         12.29953        25.52888         0.47822
C         13.57623        27.75857         0.86695
C         12.30156        27.02507         0.79170
C         13.56499        29.18504         0.62815
C         12.33115        29.81501         0.39345
C         16.02857         3.41601         0.01329
C         14.78614         4.17238         0.09590
C         15.94846         6.17434        -0.86799
C         14.77407         5.52840        -0.25230
C         15.99316         7.69004        -0.94217
C         14.74418         8.44704        -0.67606
C         16.06680        10.58163        -0.76408
C         14.77821         9.89326        -0.73421
C         16.09599        12.01668        -0.84304
C         14.86526        12.78201        -0.78557
C         16.07360        14.92054        -1.11984
C         14.81163        14.16637        -0.92590
C         16.08438        16.34468        -0.74889
C         14.78015        17.04646        -0.79829
C         16.13497        19.15484        -0.17295
C         14.85466        18.52218        -0.53459
C         16.04566        20.57179         0.25231
C         14.72270        21.29563         0.20203
C         16.06252        23.51193         0.11927
C         14.73389        22.77343         0.18978
C         16.02522        24.89056         0.73534
C         14.78427        25.57140         0.70888
C         15.94776        27.52853         1.54651
C         14.73265        26.96122         1.07397
C         15.98030        29.64137         1.03685
C         14.77415        29.96154         0.42236
C         18.50532         3.33417        -0.32036
C         17.21162         4.01017        -0.32518
C         18.50217         6.20787        -0.59692
C         17.23447         5.42060        -0.77919
C         18.44179         7.68391        -0.50802
C         17.28570         8.39197        -0.73428
C         18.52710        10.54763        -0.60792
C         17.27285         9.85320        -0.69248
C         18.54877        11.97665        -0.67267
C         17.33572        12.68879        -0.85415
C         18.57997        14.87197        -0.53694
C         17.38738        14.15348        -1.03439
C         18.50410        16.24357        -0.23975
C         17.27518        16.99258        -0.40572
C         18.60801        19.17047        -0.06714
C         17.28925        18.43186        -0.13086
C         18.53204        20.60649         0.42350
C         17.31142        21.33013         0.38620
C         18.49736        23.41290         0.83036
C         17.28988        22.72084         0.52133
C         18.49285        24.83422         1.04536
C         17.22913        25.55694         1.03089
C         18.41907        27.77679         1.57285
C         17.19299        26.93781         1.41106
C         18.44666        29.19685         1.08423
C         17.30931        29.96222         0.68701
C         19.66696         4.01890        -0.24564
C         20.93513         6.22681        -0.46938
C         19.70268         5.50372         0.03312
C         20.92929         7.56472        -0.55337
C         19.72872         8.36719        -0.09113
C         20.95158        10.54790        -0.37331
C         19.75039         9.83720        -0.44003
C         20.97645        11.94266        -0.41319
C         19.78783        12.68996        -0.51096
C         20.94024        14.80281         0.16242
C         19.77400        14.12125        -0.32354
C         20.89275        16.10567         0.54998
C         19.65584        16.88028         0.44139
C         20.95672        19.13149         0.83034
C         19.69247        18.38434         0.63738
C         20.95977        20.48360         0.82499
C         19.73247        21.26554         0.72103
C         20.89724        23.39165         1.32149
C         19.71799        22.67976         0.97152
C         20.88272        24.76137         1.48805
C         19.68677        25.50649         1.35169
C         20.93262        27.69178         1.04191
C         19.73495        26.99258         1.51307
C         20.91106        29.04473         0.82327
C         19.70145        29.77830         0.84135
O         13.30375        16.48157        -2.85278
O         12.01719        21.40036        -2.41182
O          3.24884         8.32111         2.46437
O         12.26514        25.97637         1.85033
O         19.18939        27.50740         2.78058
O          3.48378        28.55225         1.43116
O         13.33091        19.07491        -2.34935
O          2.03509        12.89977        -1.36649
O         18.13547         5.66225        -1.90286
O          9.65920        17.70863        -3.02584
O         16.84967        14.60316        -2.32447
O         15.87045        28.77933         2.15231
O          3.36307        25.38482        -1.66824
O         10.96909        15.06433        -2.73065
O         14.10201        25.49613        -1.22160
O          8.99113        21.47745        -2.47574
O         13.09143        12.58606         0.87841
O          5.27526        25.05486         1.59252
O         14.31586        17.61249         0.49662
O          7.57349        18.95918        -2.73161
O          4.78119         9.21740        -0.64398
O          3.50592        15.33784        -2.23785
O          9.37778        10.85853         1.85562
O         15.15329        20.68453         1.45387
O         13.22977         6.25392         1.51816
O          5.52488        13.02234         1.56610
O         19.26408        17.55486         1.73770
O         12.07464         9.06053        -1.74927
O         15.79862         6.86210        -2.14942
O          2.81356        18.93294        -2.23217
O         16.21993        23.75479        -1.32189
H         15.50068        24.41741        -1.55724
O          6.81821        10.40123         2.03997
H          8.65675        11.02204         2.50670
O          7.27569        26.92035         2.26223
H          6.48799        26.36458         2.47730
O         19.76768         8.34363         1.38959
H         19.03263         8.90588         1.71550
O          4.72073        22.41514         1.67271
H          4.81229        23.30975         2.08440
O         19.62188         5.62914         1.47521
H         19.77783         6.58165         1.70180
O          6.19254         2.27010         1.40260
H          6.26136         2.55990         2.33520
O          1.34750        12.64929         2.22138
H          0.66608        12.24366         2.79730
O          9.22886         9.93810        -1.66736
H          9.93293         9.55738        -2.23974
O         19.06535        19.25101        -1.45660
H         18.47631        19.86567        -1.94316
H          1.28891         2.43124         1.51264
H         -0.85950         3.66364         1.81320
H         -0.92555         6.12328         1.70631
H         -1.00581         8.00258         1.14207
H         -1.03977        10.43070         0.94077
H         -1.12745        12.36344         0.51823
H         -1.11572        14.67541        -0.20459
H         -0.94855        16.59282         0.33398
H         -0.96468        19.02825         0.23877
H         -1.06011        20.89325        -0.65572
H         -1.02204        23.31905        -0.79385
H         -1.03178        25.23171        -0.67058
H         -0.96343        27.66851        -0.53405
H          0.30219        29.78649        -0.54347
H          3.71795         2.45825         1.10131
H          2.42056        31.04337        -0.44785
H          6.06106         3.05838        -0.48629
H          5.04000        30.96590        -0.26751
H          8.61376         2.44803         0.72407
H          7.41407        30.92245         0.12985
H         11.07323         2.42672         0.66317
H          9.84815        30.91718         0.13588
H         13.57986         2.42504         0.57594
H         12.32791        30.89639         0.19135
H         16.01185         2.35980         0.32021
H         14.72953        30.79094        -0.29888
H         18.51346         2.23491        -0.38166
H         17.48845        30.83361         0.03779
H         20.62372         3.47446        -0.24136
H         21.81924         5.64923        -0.78116
H         21.81344         8.09889        -0.93164
H         21.89896        10.00892        -0.23645
H         21.94753        12.44745        -0.33141
H         21.88091        14.25023         0.28445
H         21.77991        16.57701         0.99339
H         21.89095        18.58375         1.01809
H         21.91296        21.00794         0.97662
H         21.84443        22.85552         1.46376
H         21.81315        25.27536         1.76538
H         21.84435        27.11725         0.82646
H         21.83274        29.56171         0.52065
H         19.73383        30.83723         0.54565
