         429
 CSIRO Nanostructure Databank - Neutral Graphene Oxide Data Set
C          1.78194         2.35718        -2.55592
C          1.54103         3.65924        -2.11170
C          2.90056         1.68670        -2.08979
C          2.39386         4.28632        -1.18477
C          1.37777         6.63387        -1.36083
C          1.30087         7.97608        -0.83142
C          1.97837         5.60172        -0.68851
C          2.25131         8.56371        -0.02723
C          1.01367        10.78227        -0.05982
C          1.07544        12.08515        -0.39991
C          2.21372        10.01725         0.41827
C          2.32209        12.83189        -0.41248
C          1.15933        14.98571        -1.00700
C          1.16027        16.32497        -1.23514
C          2.34689        14.23979        -0.62778
C          2.32603        17.15637        -0.91152
C          2.47580        18.52174        -1.43909
C          3.80914         2.31503        -1.19985
C          3.56688         3.62863        -0.70426
C          5.01803         1.61147        -0.91103
C          4.60688         4.22020         0.21526
C          3.51483         6.47331         0.46668
C          3.47918         7.87210         0.32630
C          4.68745         5.71251         0.37758
C          4.71286         8.57070         0.40122
C          3.52816        10.71810         0.09977
C          3.53823        12.12433        -0.19048
C          4.72616        10.02040         0.23267
C          4.79100        12.80026        -0.30939
C          3.59090        14.92033        -0.58714
C          3.62806        16.38757        -0.59498
C          4.81340        14.21048        -0.51278
C          4.90024        17.06924        -0.83815
C          3.67651        19.15399        -1.41948
C          4.91672        18.46760        -1.10259
C          6.08762         2.11750        -0.18163
C          5.90962         3.45682         0.48536
C          7.29305         1.35201        -0.26294
C          7.12568         4.29681         0.78155
C          5.90801         6.42378         0.47279
C          5.90832         7.84247         0.53362
C          7.15031         5.69042         0.62739
C          7.16554         8.59458         0.89950
C          5.99906        10.69136         0.12482
C          6.02016        12.08816        -0.15989
C          7.21075         9.99815         0.34682
C          7.26723        12.77064        -0.25599
C          6.07128        14.90326        -0.60447
C          6.10208        16.32036        -0.80344
C          7.28940        14.18432        -0.50352
C          7.35710        16.98693        -0.96008
C          6.14833        19.13582        -1.17140
C          7.37531        18.43430        -1.06471
C          8.44600         1.58834         0.50125
C          8.34201         3.67039         1.14910
C          9.76978         1.26815         0.21133
C          9.60699         4.24651         1.01783
C          8.39809         6.39958         0.71726
C          8.43546         7.81764         0.67227
C          9.62595         5.67108         0.83590
C          9.66159         8.51046         0.64920
C          8.45189        10.66213         0.24238
C          8.48328        12.05578        -0.07869
C          9.69275         9.94930         0.47359
C          9.73545        12.75387        -0.14470
C          8.53891        14.86460        -0.65131
C          8.55410        16.25101        -0.93623
C          9.76895        14.13915        -0.44676
C          9.84528        16.93129        -1.31596
C          8.60199        19.11644        -1.00054
C          9.84664        18.42286        -1.02865
C         10.90691         2.02143         0.69237
C         10.85375         3.46270         1.04856
C         12.13019         1.36839         0.60708
C         12.03005         4.14982         1.30243
C         10.84210         6.37975         0.94346
C         10.88686         7.78384         0.80370
C         12.03187         5.63662         1.40023
C         12.14254         8.49782         0.82152
C         10.91615        10.63611         0.46842
C         10.94930        12.05863         0.17463
C         12.15690         9.91519         0.67257
C         12.16169        12.76438         0.20592
C         11.01756        14.84420        -0.44632
C         11.06141        16.23793        -0.74641
C         12.22213        14.15156        -0.11167
C         12.26775        16.93460        -0.70506
C         11.04407        19.08977        -0.97572
C         12.33522        18.36182        -1.21825
C         13.41596         2.04556         0.68420
C         13.36392         3.51976         1.13108
C         14.68375         1.32936         0.73282
C         14.61920         4.15481         1.63248
C         13.34912         6.38808         1.37883
C         13.37060         7.79138         0.92478
C         14.65766         5.65048         1.48842
C         14.60559         8.45212         0.78819
C         13.39707        10.59851         0.72392
C         13.37179        12.11244         0.83382
C         14.61570         9.87617         0.73201
C         14.66801        12.69464         0.24164
C         13.46993        14.87848        -0.11530
C         13.47102        16.25814        -0.39363
C         14.71243        14.21409         0.20509
C         14.74886        16.98241        -0.57474
C         13.54563        19.10986        -0.72035
C         14.72752        18.46813        -0.49163
C         15.90530         2.03032         0.82296
C         15.91635         3.32749         1.62580
C         17.13368         1.41943         0.60919
C         17.16733         4.18433         1.45795
C         15.86231         6.14516         0.69171
C         15.87074         7.69302         0.40676
C         17.14595         5.52165         1.23477
C         17.16248         8.41369         0.74752
C         15.90650        10.55201         0.67301
C         15.87839        12.04291         0.90740
C         17.09609         9.86293         0.60820
C         17.14142        12.80237         0.63497
C         15.91841        14.89653         0.28452
C         16.03473        16.26657        -0.29669
C         17.12876        14.17337         0.67159
C         17.27212        17.09801        -0.15345
C         15.94877        19.15938        -0.12900
C         17.16145        18.52126         0.03217
C         18.41986         2.19392         0.64675
C         18.43618         3.38043         1.68592
C         19.66802         1.33508         0.71934
C         19.71115         4.17913         1.39414
C         18.39550         6.35173         1.47516
C         18.35071         7.76996         0.95202
C         19.61863         5.60823         0.99793
C         19.71025         8.45154         0.92717
C         18.37571        10.57542         0.38813
C         18.40477        12.08907         0.44474
C         19.65271         9.89693         0.52353
C         19.68061        12.79864         0.61409
C         18.36739        14.81026         1.22428
C         18.53065        16.55078        -0.40549
C         19.66483        14.19709         0.82521
C         19.74236        17.15797         0.12503
C         18.42474        19.35386         0.18704
C         19.72909        18.57173         0.25667
C         20.89682         1.93474         0.79950
C         20.93605         3.41345         1.01769
C         22.15618         1.27885         0.52682
C         21.97103         4.08797         0.20912
C         20.60974         6.18262         0.24040
C         20.72004         7.67266         0.04271
C         21.65286         5.31715        -0.28083
C         22.04979         8.47041        -0.29325
C         20.85203        10.61462         0.33273
C         20.87330        12.07606         0.43777
C         22.05645         9.91937         0.06374
C         22.09794        12.80458         0.54806
C         20.86815        14.95025         0.72474
C         20.89352        16.41247         0.54462
C         22.07672        14.21933         0.71803
C         22.10266        17.12214         0.72442
C         20.93389        19.24925         0.43028
C         22.15684        18.53636         0.55163
C         23.34051         1.97155         0.27038
C         23.35212         3.48671         0.37792
C         24.58213         1.31034         0.06632
C         24.57051         4.17041        -0.23964
C         23.51940         6.41882        -0.76019
C         23.40208         7.81740        -0.45229
C         24.61312         5.60349        -0.45677
C         24.57316         8.49187        -0.13555
C         23.28680        10.71322         0.00782
C         23.33487        12.12214         0.43895
C         24.60123         9.95931        -0.03366
C         24.58714        12.82019         0.54260
C         23.34086        14.90040         1.02222
C         23.35005        16.42621         1.08894
C         24.61616        14.22119         0.80560
C         24.65716        17.09790         0.95036
C         23.42138        19.20106         0.53741
C         24.63968        18.52359         0.66967
C         25.80319         2.01741        -0.00874
C         25.76493         3.47028        -0.08098
C         27.05524         1.33700        -0.12802
C         27.03555         4.18540         0.15458
C         25.90361         6.29983        -0.46709
C         25.88139         7.84090        -0.30965
C         27.12232         5.62140        -0.07770
C         27.11619         8.46631         0.15821
C         25.79806        10.63806         0.52594
C         25.81856        12.11134         0.50717
C         27.09029         9.87073         0.59919
C         27.04391        12.79186         0.64091
C         25.83852        14.93603         0.95859
C         25.84700        16.39678         1.07167
C         27.04318        14.19456         0.84161
C         27.14258        17.18868         1.33109
C         25.87958        19.17477         0.42019
C         27.12862        18.57929         0.63257
C         28.31102         1.98283        -0.13418
C         28.34908         3.42175         0.19516
C         29.54733         1.35438        -0.38626
C         29.59045         4.19193         0.02001
C         28.32034         6.31867         0.04972
C         28.31413         7.76345         0.15463
C         29.57009         5.60212         0.10749
C         29.57478         8.47001         0.27472
C         28.34790        10.63042         0.51744
C         28.30420        12.04491         0.53829
C         29.56127         9.92528         0.34986
C         29.51764        12.74700         0.37886
C         28.35834        14.85462         1.13733
C         28.37619        16.35447         1.01767
C         29.47667        14.23020         0.33316
C         29.62183        16.92321         1.07146
C         28.25990        19.34587         0.22151
C         29.60116        19.06998         0.57219
C         30.78443         2.06272        -0.36669
C         30.80407         3.49972        -0.17117
C         32.01785         1.40979        -0.57136
C         32.03325         4.22354        -0.12412
C         30.79839         6.33093         0.11958
C         30.77028         7.77142         0.17139
C         32.01865         5.62357         0.07344
C         32.02601         8.51639        -0.19506
C         30.78661        10.65001         0.32711
C         30.73843        12.06522         0.33856
C         32.04526         9.96294         0.21624
C         31.99426        12.84577         0.35354
C         30.72340        14.98823         0.01777
C         30.84245        16.38880         0.50718
C         31.95149        14.16474        -0.38887
C         31.97126        17.15947         0.26622
C         30.83149        19.43491         0.03034
C         32.02592        18.63121         0.23374
C         33.25178         2.10431        -0.55517
C         33.28345         3.52124        -0.29515
C         34.47418         1.42320        -0.80074
C         34.51203         4.22021        -0.28243
C         33.30013         6.33394         0.42344
C         33.30692         7.80256         0.11120
C         34.55121         5.63734        -0.04782
C         34.50469         8.50137         0.05306
C         33.26227        10.63813         0.24459
C         33.29109        12.10679         0.36953
C         34.50586         9.94725         0.05730
C         34.53253        12.82956         0.02619
C         33.24918        14.96065        -0.33388
C         33.22542        16.45417        -0.14581
C         34.52153        14.22583        -0.11358
C         34.52452        17.12696         0.06516
C         33.27410        19.24692         0.11342
C         34.52341        18.54006         0.13148
C         35.70101         2.10094        -0.84360
C         35.73903         3.52562        -0.59270
C         36.92899         1.41315        -1.07248
C         36.95314         4.21667        -0.65364
C         35.74035         6.35873        -0.10728
C         35.76672         7.78955        -0.01797
C         37.05367         5.62135        -0.11480
C         36.97224         8.51079        -0.17854
C         35.73255        10.65598        -0.00809
C         35.74841        12.09905        -0.00059
C         36.96208         9.94071        -0.17174
C         36.98311        12.80453        -0.01158
C         35.74450        14.95205        -0.07329
C         35.73676        16.39397        -0.02238
C         36.97663        14.24589         0.01973
C         36.97941        17.09244        -0.04393
C         35.76883        19.22315         0.12361
C         36.97447        18.52786         0.02343
C         38.14079         2.09566        -1.13427
C         38.16082         3.53302        -0.98421
C         39.39307         1.41731        -1.34765
C         39.36170         4.24676        -1.15828
C         38.19408         6.43530        -0.65945
C         38.20300         7.80375        -0.51977
C         39.31518         5.73803        -1.37717
C         39.41931         8.56976        -0.79148
C         38.18403        10.67475        -0.29533
C         38.19200        12.06510        -0.10241
C         39.42547         9.97885        -0.63233
C         39.52913        12.70940         0.17703
C         38.20385        14.97601         0.03703
C         38.20906        16.36696        -0.08267
C         39.47598        14.24050         0.28030
C         39.47802        17.11512        -0.43995
C         38.23666        19.23332         0.04660
C         39.43463        18.58433        -0.07775
C         40.56679         2.11246        -1.42129
C         40.58510         3.55205        -1.35865
C         41.78654         4.28243        -1.46526
C         40.64223         6.43634        -1.23239
C         40.62713         7.88337        -1.12263
C         41.80632         5.68792        -1.35943
C         41.79070         8.64420        -1.35771
C         40.61006        10.72083        -0.89249
C         40.57652        12.24581        -0.85360
C         41.76800        10.03431        -1.27944
C         41.90989        12.90369        -0.53502
C         40.77164        14.97269         0.20874
C         40.77395        16.44515        -0.02667
C         41.98846        14.15774        -0.06508
C         41.90678        17.18742         0.10004
C         40.68835        19.29937        -0.00995
C         41.87495        18.63043         0.03338
O          2.80810        17.00456         0.45669
O         23.26334        15.62514         2.30908
O         22.39998         5.83946        -1.33423
O          4.83306         3.49231         1.47045
O          2.29513         5.80932         0.67022
O         18.34634        11.38868        -0.85668
O         15.96268         2.75793         2.92472
O         18.28031        15.67450         2.09370
O          8.25223         2.37360         1.65060
O         29.64190        14.84374        -0.98192
O         26.25998        10.08591         1.80944
O         20.77791         3.91648         2.39311
O         24.08479        10.55267        -1.25054
O         29.71618        18.18528         1.66463
O         15.75935         7.89762        -0.99749
O         20.98857         8.15838        -1.27272
O         26.04840         7.19269        -1.61641
O         32.71189        12.72740         1.60951
O         40.13830        14.69207         1.52943
O         33.25321        15.85342        -1.50956
O         27.64482         3.76269         1.43235
O         14.70432         5.02410         2.79434
O         13.53035         3.18576        -0.28102
O         15.51435        16.36885        -1.68992
O         12.57340         6.23865         2.62096
O         18.52073         6.47976         2.93880
H         18.60150         5.57352         3.31373
O         23.62341         3.76535         1.80265
H         22.81207         3.56425         2.32314
O         18.48835        20.33020        -0.86684
H         18.44419        19.86059        -1.72473
O          9.96500        16.80607        -2.77085
H         10.79541        17.28452        -3.02265
O         31.79043        13.74243        -1.76080
H         31.87778        14.54789        -2.31856
O         12.45888        18.23416        -2.69038
H         13.32689        17.80962        -2.86848
O         38.97566         5.88207        -2.82270
H         39.69855         5.45284        -3.32922
O         28.64659        14.57174         2.54367
H         27.96159        15.02468         3.08256
O         33.36004         6.26232         1.90713
H         34.15629         6.76203         2.19012
O         13.24241        12.45219         2.24073
H         13.92311        11.93859         2.73509
O         31.97436         8.54721        -1.68724
H         32.73637         9.08487        -1.99418
O         27.15724        17.45293         2.76663
H         27.99078        17.94502         2.94527
O          7.08788         8.77463         2.36549
H          7.16904         7.88685         2.77521
O         39.94784        12.17371         1.45274
H         40.20442        12.94512         2.01552
O         15.78651        12.16505         2.37061
H         15.79897        13.12040         2.59881
O         14.72694        12.29922        -1.14925
H         13.95781        12.68697        -1.61701
O          2.11153        10.00127         1.87964
H          2.88471         9.50485         2.22364
O         39.49739        17.08063        -1.91749
H         40.21916        17.67714        -2.21024
O         18.50779         2.89271         3.01512
H         17.56426         2.68764         3.29682
O         40.14008        12.71436        -2.15463
H         40.74427        12.34955        -2.83390
O         15.65898         5.49739        -0.58837
H         15.69665         6.24014        -1.26198
O         37.38206         5.43791         1.32317
H         36.65980         4.90371         1.71893
O         18.65845        15.44680        -1.18082
H         17.78472        15.18718        -1.54423
O         20.28440         8.41937         2.27068
H         19.75674         7.77750         2.81448
O         18.48429         2.89170        -0.64646
H         18.29844         2.24466        -1.35909
H          1.08926         1.87401        -3.25792
H          0.64302         4.19483        -2.45041
H          3.11632         0.66352        -2.42902
H          0.97452         6.46236        -2.37018
H          0.50294         8.61538        -1.24289
H          0.03528        10.28180        -0.01399
H          0.14460        12.60571        -0.66513
H          0.23884        14.42600        -1.22295
H          0.27307        16.81220        -1.66665
H          1.58371        19.03279        -1.83116
H          5.13783         0.62281        -1.38056
H          3.75024        20.19626        -1.76433
H          7.33218         0.56967        -1.03701
H          6.16638        20.22552        -1.32235
H          9.97317         0.47375        -0.52287
H          8.60646        20.21606        -0.94656
H         12.13611         0.28144         0.43475
H         11.06340        20.18429        -0.85419
H         14.67799         0.23193         0.63069
H         13.48928        20.20635        -0.64243
H         17.16216         0.40052         0.18180
H         15.91603        20.25748        -0.07762
H         19.58844         0.25331         0.52152
H         18.34537        19.94073         1.14214
H         22.16525         0.17791         0.47512
H         20.94368        20.34855         0.43953
H         24.59905         0.20932         0.04046
H         23.43651        20.28554         0.35203
H         27.03154         0.24171        -0.24240
H         25.84818        20.20623         0.03471
H         29.56686         0.27392        -0.59687
H         28.05871        20.20533        -0.43847
H         32.02576         0.32440        -0.75373
H         30.91529        20.31880        -0.62034
H         34.45332         0.33698        -0.97611
H         33.31019        20.34294         0.02247
H         36.91182         0.32025        -1.19995
H         35.77974        20.32213         0.17482
H         39.38951         0.32126        -1.43903
H         38.22042        20.32352         0.20233
H         41.51904         1.58194        -1.56790
H         42.73556         3.74027        -1.58303
H         42.78555         6.18822        -1.35568
H         42.72708         8.14680        -1.64428
H         42.68819        10.58547        -1.51910
H         42.84437        12.35345        -0.72401
H         42.97434        14.61033         0.12544
H         42.86991        16.70411         0.32020
H         40.66324        20.39761         0.05102
H         42.82289        19.18113         0.10464
