         272
 CSIRO Nanostructure Databank - Neutral Graphene Oxide Data Set
C        -11.39878         0.78150        -0.19796
C        -10.16750         1.56643        -0.09116
C         -8.92327         0.76809         0.25002
C         -7.63765         1.44338        -0.46421
C         -6.37964         0.80798         0.22853
C         -5.07542         1.36877        -0.34060
C         -3.89490         0.73832         0.35044
C         -2.68302         1.52080         0.75483
C         -1.45999         0.80642         1.41541
C         -0.14335         1.62040         1.35675
C          1.16267         0.85244         1.23158
C          2.44723         1.61688         1.47582
C          3.73153         0.83051         1.41473
C          4.91188         1.49342         0.75845
C          6.09266         0.68249         0.31511
C          7.35790         1.45008         0.01321
C          8.70536         0.80182         0.01862
C          9.94073         1.51836        -0.57000
C         10.83110         0.58152        -1.36598
C        -10.10926         2.92618        -0.01249
C         -8.82551         3.64568         0.43141
C         -7.62438         2.95075        -0.26473
C         -6.28727         3.60213        -0.32644
C         -5.03745         2.81219        -0.64724
C         -3.69884         3.51739        -0.59661
C         -2.52967         2.87328         0.10277
C         -1.42901         3.76633         0.60266
C         -0.13901         3.09640         1.05927
C          1.17337         3.70131         0.53163
C          2.42553         3.16460         1.29637
C          3.72162         3.73150         0.69318
C          5.05213         3.00776         1.00035
C          6.12213         3.65427         0.10606
C          7.18008         2.83046        -0.57356
C          8.36269         3.43553        -1.31170
C          9.54272         2.68184        -1.44740
C         -8.75692         5.12451         0.01627
C         -7.93944         6.06484         0.48791
C         -5.89588         4.71858         0.63320
C         -4.92331         5.68396         0.00598
C         -3.75752         5.02627        -0.69342
C         -2.41979         5.74953        -0.88861
C         -1.40303         5.18429         0.12465
C         -0.10959         5.94947         0.28820
C          1.16340         5.24007         0.63817
C          2.48562         6.00918         0.59355
C          3.74791         5.20955         0.43981
C          5.05603         5.96372         0.46797
C          6.29836         5.14221         0.29595
C          7.53396         5.75607        -0.27320
C          8.77050         4.96531        -0.12226
C         -7.47704         7.21661         0.97078
C         -6.09767         7.82273         0.92041
C         -4.84593         7.07840         0.54370
C         -3.67903         7.89923         0.06314
C         -2.55802         7.25950        -0.67681
C         -1.24393         8.00510        -0.96773
C          0.00776         7.23707        -0.47164
C          1.27853         8.00397        -0.46098
C          2.51107         7.46466         0.21817
C          3.79738         8.16587        -0.14251
C          5.09695         7.41154         0.03765
C          6.31554         7.87857        -0.74405
C          7.48387         6.97369        -0.88717
C         -5.98802         9.31007         0.82419
C         -4.81740         9.96910         0.70994
C         -3.47788         9.24830         0.74423
C         -2.28268        10.01261         0.19618
C         -1.22432         9.43080        -0.41732
C          0.03447        10.11947        -0.76264
C          1.21283         9.44638        -0.84185
C          2.44030         9.96683        -1.55405
C          3.75943         9.39267        -1.02368
C          4.97478         9.67302        -1.82943
C          6.12888         8.98639        -1.70769
C        -11.44172        -0.57847        -0.20751
C        -10.22610        -1.41414        -0.36124
C         -8.91292        -0.66978        -0.28748
C         -7.64609        -1.45709        -0.10001
C         -6.37648        -0.71055         0.07020
C         -5.17495        -1.43413         0.60246
C         -3.88121        -0.76398         0.15313
C         -2.56388        -1.40550         0.54416
C         -1.33195        -0.63030         0.91340
C         -0.11628        -1.41871         1.34331
C          1.19229        -0.65591         1.24533
C          2.46626        -1.42662         1.55174
C          3.78492        -0.68646         1.54033
C          5.06654        -1.46199         1.34144
C          6.21767        -0.79016         0.62697
C          7.54821        -1.47267         0.53127
C          8.80140        -0.68226         0.27048
C          9.93812        -1.47372        -0.30975
C         10.84949        -0.75330        -1.22804
C        -10.15636        -2.86108        -0.22967
C         -8.93189        -3.59301        -0.14147
C         -7.68839        -2.92551         0.09304
C         -6.48255        -3.64541         0.24722
C         -5.22575        -2.92651         0.62231
C         -3.89946        -3.65450         0.59714
C         -2.60614        -2.89992         0.71813
C         -1.30569        -3.55964         0.30986
C         -0.11228        -2.88790         1.04019
C          1.21342        -3.54187         0.73687
C          2.48169        -2.90481         1.24622
C          3.76132        -3.77884         1.22958
C          5.09868        -2.98453         1.33227
C          6.42895        -3.67783         1.14124
C          7.78459        -2.88209         1.12454
C          8.85287        -3.62537         0.30925
C          9.81163        -2.95558        -0.36595
C         -8.88886        -5.01301        -0.29422
C         -7.67768        -5.71004        -0.31631
C         -6.46664        -5.03984         0.00885
C         -5.17493        -5.75714        -0.30644
C         -3.85867        -5.05055         0.03409
C         -2.57509        -5.80520         0.24603
C         -1.33133        -5.05648         0.66904
C         -0.02728        -5.79365         0.66040
C          1.22003        -4.99444         0.36664
C          2.52854        -5.70060         0.08404
C          3.80147        -4.93937         0.23038
C          5.11983        -5.65378         0.05715
C          6.42252        -5.01534         0.43309
C          7.65456        -5.85389         0.36245
C          8.96556        -5.12005         0.58742
C         -7.65041        -7.13834        -0.85128
C         -6.44051        -7.95231        -0.38842
C         -5.19382        -7.24219         0.02779
C         -3.89354        -8.01872         0.17048
C         -2.59714        -7.30029         0.39111
C         -1.28507        -8.03579         0.23115
C          0.00255        -7.29497         0.50726
C          1.29897        -7.98782         0.22932
C          2.57057        -7.18195         0.25808
C          3.86526        -7.90719         0.16643
C          5.07906        -7.12991        -0.26980
C          6.36888        -7.87312        -0.39485
C          7.61994        -7.14384        -0.06103
C         -6.26127        -9.31507        -0.95783
C         -5.07315        -9.93614        -1.03683
C         -3.80679        -9.49398        -0.33384
C         -2.55778        -9.67170        -1.18676
C         -1.26261        -9.32123        -0.62311
C          0.06150        -9.70869        -1.29445
C          1.33938        -9.25397        -0.56938
C          2.54046        -9.85319        -0.76138
C          3.78661        -9.44080         0.04317
C          5.11653       -10.03319        -0.38136
C          6.28340        -9.36156        -0.39083
O          5.84097        -3.56709         2.44961
O          3.15052        -5.03670        -1.06406
O         -3.64398         7.89911        -1.39367
O         -0.69682        -5.39434         1.91131
O          2.29952        -2.38632         2.60893
O         -1.96425         4.84204         1.43158
O         -5.33213        -2.10185         1.85489
O         -1.18816         8.06184        -2.36673
O         -9.44976        -0.90185        -1.58049
O          5.89949         5.63399         1.60917
O          2.50203         7.05243         1.60931
O          5.95814         3.19015        -1.27019
O          3.37984        -7.47204         1.46625
O          9.94725        -0.99506         1.08951
O         -5.22172        -5.80335        -1.83383
O         -4.87519         5.54284        -1.44501
O          0.72130        -8.00621         1.56850
O         -2.93233        -5.30294        -1.07062
O          3.22383         1.34664         2.68101
O         -7.21092         3.72587        -1.44645
O         -3.20592        -3.48905         1.88680
O         -3.36601        -7.82345         1.51853
O         -3.80662         1.35232         1.66715
O          8.21637         1.52717         1.20644
O          5.88234        -4.88250        -0.92903
O          6.11110         8.20269         0.68378
O          8.27713        -2.78749         2.40966
O         -6.73206        -1.17835        -1.25249
O          0.33500         5.84364         1.66646
O          5.01218         0.99975        -0.61083
O          0.96750         7.09624        -1.58644
O          3.88572         9.51301         0.41927
O         -0.10207         2.62497         2.42891
O          3.64032         4.24373        -0.66867
O         -8.78825         0.78044         1.62328
O          6.62730        -1.50507        -0.59614
O         -2.65111         2.85691        -1.35256
O          1.25603         0.08348        -0.01326
O         -6.15306        -7.70110         1.02236
O          1.14475        -3.93758        -0.66113
O         -1.59491        -0.91318        -0.47308
O         -0.31062        -2.39711         2.38832
O         -5.17715         7.24166         1.94398
O         -5.09636         1.80423        -1.70785
O         -6.05064         4.60376         1.83207
O          5.60678        -7.39736        -1.59046
O         -1.26438        -9.34040         0.83739
O          4.69906        -0.96236         2.65032
O         -1.92799         5.54095        -2.20726
H         -1.67149         6.43508        -2.59264
O         10.72693         2.02952         0.53429
H         10.14375         2.07357         1.32520
O          1.19095         3.31035        -0.84325
H          2.01502         3.64675        -1.27120
O          3.64407        -4.55427         2.44373
H          3.65900        -3.93516         3.20796
O          2.31555         9.58827        -2.93710
H          1.52184         9.01874        -3.04176
O         -3.69516       -10.35495         0.81656
H         -3.20304        -9.85720         1.51301
O          7.98972         4.16380        -2.44080
H          7.00146         4.16566        -2.46834
O         -1.26332        -3.36940        -1.10381
H         -0.36215        -3.56084        -1.45247
O          5.40352         3.18689         2.36901
H          4.64053         2.90998         2.92991
O         -3.98458        -0.95396        -1.28223
H         -3.12035        -0.72543        -1.69365
O          8.97940         4.43334         1.10323
H          8.15880         4.41106         1.64116
O         -8.72922         3.51087         1.84319
H         -8.80183         2.53821         2.05329
O          3.56748        -9.99777         1.35809
H          3.17019        -9.28592         1.91695
O         10.00507        -5.71868        -0.17674
H          9.71919        -5.75789        -1.11239
O         -7.68225         1.14893        -1.82896
H         -7.42763         1.95930        -2.33119
O         -1.74114         0.62661         2.80702
H         -1.83251         1.50768         3.23015
O         -5.08977        -4.44208        -2.30412
H         -6.00312        -4.19744        -2.59310
O         -3.13805         9.00252         2.13218
H         -3.85554         8.43734         2.51378
O          0.03123        -9.09423        -2.58901
H          0.82438        -9.37015        -3.09275
O         -7.66756        -7.08258        -2.28547
H         -6.84648        -6.61890        -2.57336
O          2.39646         3.73241         2.61291
H          1.55456         3.46760         3.05380
O         -6.32949         1.16110         1.59950
H         -7.20895         0.93656         2.02328
H         11.55005        -1.35454        -1.82747
H         11.54282         1.06208        -2.05423
H         10.25578         3.00542        -2.22081
H          9.69506         5.37238        -0.58241
H          8.39157         7.37957        -1.36206
H          6.97238         9.21529        -2.37663
H          4.88894        10.44737        -2.60567
H          2.49297        11.08849        -1.49199
H         -0.00146        11.19121        -1.01827
H         -2.19471        11.06202         0.52363
H         -4.82123        11.06840         0.64955
H         -6.93071         9.87964         0.82698
H         -8.16586         7.77790         1.63440
H         -9.28622         5.36004        -0.92793
H        -11.03006         3.52126        -0.12785
H        -12.34990         1.33731        -0.18468
H        -12.41593        -1.09029        -0.19402
H        -11.09946        -3.42685        -0.16027
H         -9.81993        -5.54935        -0.53060
H         -8.58322        -7.67178        -0.53811
H         -7.13864        -9.76505        -1.44717
H         -5.02171       -10.92153        -1.52484
H         -2.61891       -10.06406        -2.21255
H          0.09741       -10.82788        -1.41448
H          2.59696       -10.77293        -1.36713
H          5.13717       -11.13095        -0.46224
H          7.22138        -9.91572        -0.55428
H          8.57052        -7.69470        -0.14706
H          9.25306        -5.21047         1.67019
H         10.62192        -3.51796        -0.85800
