         300
 CSIRO Nanostructure Databank - Neutral Graphene Oxide Data Set
C         30.06514        31.67524         0.18721
C         30.17005        32.90179         0.19703
C         30.26509        36.16002        -0.19586
C         30.26922        37.38216        -0.11448
C         30.30737        40.57267        -0.56165
C         30.34806        41.77633        -0.87165
C         32.49307        28.82294        -0.28749
C         31.42690        29.41704        -0.09064
C         32.48610        31.59376        -0.00563
C         31.19283        30.74902         0.55562
C         32.53770        33.01363         0.60823
C         31.19529        33.90464         0.61154
C         32.59225        36.01234         0.20722
C         31.35964        35.14958        -0.27159
C         32.66256        37.51010        -0.01176
C         31.36688        38.35139         0.20532
C         32.69923        40.40416        -0.56552
C         31.39950        39.56635        -0.71910
C         32.75496        41.74927        -0.85231
C         31.51977        42.58922        -1.00619
C         32.96107        44.41502        -1.32139
C         31.77336        43.92239        -1.23000
C         35.26019        27.23265        -0.09821
C         35.06947        28.62831        -0.11729
C         33.85369        29.39699        -0.57764
C         35.09510        31.48561         0.25071
C         33.78459        30.78599         0.11948
C         35.15556        32.97285         0.48434
C         33.85612        33.73674         0.60606
C         35.12713        35.93306        -0.07717
C         33.86871        35.25896         0.43109
C         35.15333        37.46024        -0.38961
C         33.84521        38.17116        -0.06646
C         35.21235        40.33552        -0.24371
C         33.88493        39.68751         0.09770
C         35.27133        41.63389        -0.61285
C         34.09792        42.34778        -1.21737
C         35.52737        44.43993        -1.50712
C         34.21769        43.88995        -1.27695
C         36.02980        45.79124        -1.60165
C         37.56642        27.09500         0.44182
C         36.25188        26.50348         0.13637
C         37.55703        28.58553         0.24202
C         36.34487        29.27306         0.05999
C         37.60684        31.49771        -0.41835
C         36.33180        30.74936        -0.20049
C         37.55512        33.04366        -0.46971
C         36.44258        33.69974         0.34109
C         37.67051        35.92221         0.48849
C         36.41433        35.18134         0.04624
C         37.73606        37.37549        -0.03351
C         36.40176        38.13987         0.27873
C         37.67666        40.32988         0.52326
C         36.53968        39.60017        -0.21638
C         37.75124        41.82630         0.23178
C         36.55909        42.37670        -0.52103
C         38.53065        44.67715        -0.71691
C         36.61005        43.59156        -1.34706
C         38.18678        46.11892        -0.52238
C         37.05389        46.47006        -1.42580
C         40.29536        24.36421         0.51265
C         39.21838        24.94750         0.31762
C         40.20510        27.13848         0.59704
C         38.87122        26.35694         0.55289
C         40.20530        28.55100         0.06900
C         38.84111        29.24277        -0.28935
C         40.17038        31.50802         0.09605
C         38.87282        30.76368        -0.03348
C         40.21506        32.97067        -0.25448
C         38.92348        33.72786        -0.30689
C         40.27537        35.93088         0.12107
C         38.98370        35.16287         0.18362
C         40.30763        37.46394         0.08829
C         38.98468        38.09320         0.47545
C         40.27885        40.21741         1.06516
C         38.95517        39.52206         0.78754
C         40.31945        41.72630         0.91880
C         39.11698        42.49851         0.43356
C         40.35332        44.65349         0.92024
C         39.31957        43.94835         0.10840
C         40.33529        46.15391         0.97319
C         39.10442        46.89814         0.38222
C         40.46300        48.94200         0.61956
C         39.43002        48.32543         0.34071
C         42.94339        24.38278         0.82082
C         41.65005        24.93491         0.25176
C         42.87634        27.26497         1.02947
C         41.54085        26.44916         0.79090
C         42.81550        28.67569         0.48262
C         41.52379        29.29504         0.07090
C         42.77039        31.55611         0.42273
C         41.49084        30.78642         0.23899
C         42.77033        33.08330         0.44906
C         41.53182        33.73159        -0.16531
C         42.86477        35.93252         0.04877
C         41.56716        35.23372        -0.23803
C         42.88867        37.44953         0.21528
C         41.57208        37.91108         0.92902
C         42.89979        40.14520         1.33709
C         41.55662        39.43405         1.20647
C         42.92889        41.63602         1.08661
C         41.67069        42.40926         0.81867
C         42.92072        44.66838         1.36313
C         41.68559        43.93334         0.91940
C         42.85238        46.14616         1.74311
C         41.63605        46.91524         1.27813
C         43.02961        48.90565         1.29939
C         41.83691        48.34163         0.60040
C         43.93138        25.15189         0.72563
C         45.32864        27.27240         0.41124
C         44.17974        26.53617         0.64092
C         45.25461        28.71855         0.40366
C         44.00471        29.37159         0.32491
C         45.08118        31.40570        -0.83046
C         44.16177        30.89884         0.33526
C         45.08539        32.95812        -0.86226
C         43.94685        33.73021        -0.27047
C         45.34685        35.82850         0.10955
C         44.01195        35.20341         0.01088
C         45.40014        37.30324         0.31643
C         44.16555        37.84014         1.06836
C         45.57674        40.06635         1.21429
C         44.19473        39.37675         1.29983
C         45.49724        41.62191         1.32476
C         44.18579        42.36203         1.51309
C         45.49872        44.64261         1.66723
C         44.17219        43.87994         1.68018
C         45.37242        46.10869         1.43614
C         44.25662        46.84884         2.08915
C         44.02496        48.24366         1.60279
C         47.78180        27.48725         0.38081
C         46.70925        26.86234         0.34669
C         47.76869        28.97233         0.82064
C         46.51503        29.46532         0.10439
C         47.83069        31.50436        -0.92612
C         46.48740        30.75609        -0.66018
C         47.66086        33.01236        -1.11147
C         46.33384        33.73986        -1.28642
C         47.61290        35.96888        -1.06309
C         46.46832        35.11936        -0.58698
C         47.80798        37.33956        -0.41347
C         46.50300        38.02712        -0.00943
C         47.60851        40.36252        -0.38128
C         46.46434        39.52252         0.10858
C         47.67836        41.90371        -0.11921
C         46.76488        42.42242         1.03777
C         48.08902        44.79919         0.86957
C         46.80828        43.92076         1.31103
C         47.53038        46.11159         0.29584
C         46.45451        46.59952         0.73180
C         50.09003        29.65624         1.50641
C         48.96373        29.85234         0.63247
C         50.11111        32.02327         0.39581
C         48.94650        31.13226         0.10320
C         50.61053        32.88524        -0.53275
C         48.73611        33.73503        -1.51258
C         50.19432        35.87204        -1.58873
C         48.81335        35.22329        -1.56184
C         50.08955        37.42197        -1.62583
C         48.81011        38.17034        -1.22855
C         50.16091        40.37112        -0.90305
C         48.82335        39.66728        -1.00849
C         50.15862        41.91298        -0.94625
C         49.10952        42.48219         0.05608
C         50.41146        44.53564        -0.18919
C         48.97372        44.16458        -0.19570
C         51.02597        30.34248         1.94216
C         52.10764        32.66419         1.70326
C         50.84907        31.86127         1.80482
C         52.47212        33.38598         0.78128
C         51.81823        33.85219        -0.46663
C         52.35357        36.31824        -0.49986
C         51.29388        35.30633        -0.27886
C         52.50443        37.30927        -1.22294
C         51.39252        38.18919        -1.65526
C         52.49891        40.54519        -1.64102
C         51.42483        39.61809        -1.24592
C         52.52682        41.77849        -1.58238
C         51.64301        42.55118        -0.64841
C         51.41321        44.02681        -0.71735
O         49.95360        33.06998        -1.76100
O         44.91524        41.84042         2.64200
O         33.14799        35.83554         1.55739
O         40.76281        39.78611         2.37273
O         40.71644        26.78584         1.92693
O         42.05040        31.05149         1.57206
O         41.04078        28.66431        -1.15600
O         39.82683        35.31748         1.37104
O         37.96164        39.91356         1.84738
O         34.45767        30.79693         1.38653
O         34.23223        41.97863        -2.73970
O         44.83037        44.27348         2.90309
O         38.11608        26.65862         1.73470
O         46.38754        40.14610        -1.19645
O         47.88112        35.89796        -2.47934
O         36.84557        30.98429        -1.54790
O         36.07645        33.23827         1.63654
O         48.41555        39.07458        -2.28072
O         39.32385        31.20506         1.26866
O         35.75529        35.30503        -1.24534
O         46.56517        29.47479        -1.35840
O         33.21446        33.23602         1.84604
O         39.94829        45.33630         2.12202
O         43.55615        39.72660         2.56051
O         39.62593        33.35257        -1.53669
O         36.76788        42.62998         0.94508
O         46.36971        35.06189         0.86122
O         37.87721        46.38666         0.89069
O         41.70779        34.43873        -1.43752
O         39.45381        42.37319         1.87258
O         47.29990        42.95756         2.27122
O         44.09899        37.17187         2.27541
O         44.82013        31.11498         1.53594
O         43.96673        33.41329        -1.69484
O         42.59121        44.52535        -0.06404
O         42.50611        41.93800        -0.28556
O         51.02755        39.81606         0.13844
O         37.87862        43.99851        -1.76170
O         41.91551        46.70766         2.69369
O         50.71156        37.91995        -2.87943
O         37.91514        37.22349        -1.47043
H         37.63532        38.08727        -1.88279
O         31.39161        39.06074        -2.06521
H         30.99907        39.73879        -2.65410
O         36.13794        38.19182         1.67342
H         36.57330        37.43102         2.13221
O         41.51063        37.21700         2.15941
H         42.43822        37.18503         2.55122
O         48.84573        45.05938         2.00936
H         48.26489        45.26848         2.76910
O         47.13422        42.48340        -1.31979
H         46.43917        41.87072        -1.66481
O         48.51577        37.10128         0.84264
H         47.89723        36.62038         1.44311
O         42.17925        48.07789        -0.74152
H         42.38132        48.92004        -1.19903
O         50.84776        35.43183        -2.76588
H         51.04293        36.23527        -3.31406
O         47.49303        28.96342         2.20478
H         48.33740        28.88991         2.70031
O         30.93101        34.33425         1.92907
H         31.65965        34.01914         2.51542
O         43.09958        38.10577        -1.03657
H         42.34177        37.90598        -1.63533
O         44.50777        30.92843        -2.04906
H         45.16124        31.03474        -2.77175
O         36.97224        39.64363        -1.61778
H         36.16159        39.60224        -2.18463
O         42.81568        33.47963         1.82531
H         43.38860        32.84078         2.30793
O         32.28964        31.82970        -1.39772
H         32.43078        30.99322        -1.89620
O         33.97511        29.63554        -1.98515
H         34.12765        28.78320        -2.44484
O         38.66741        29.07197        -1.71319
H         39.55873        29.04522        -2.13604
O         33.73377        39.96515         1.51122
H         32.86841        39.58989         1.81454
O         46.28262        39.65385         2.39769
H         45.69743        39.84612         3.16589
O         40.53352        37.85568        -1.29745
H         39.72255        37.57092        -1.79343
O         31.60731        34.74321        -1.60294
H         31.43752        35.48964        -2.21328
O         50.65227        35.38542         0.94885
H         50.31066        36.29353         1.11738
O         49.79913        42.30681        -2.27296
H         48.84921        42.08662        -2.42006
O         48.29260        30.97359        -2.18356
H         49.11230        31.46038        -2.43060
O         52.61877        33.73765        -1.61214
H         52.17413        34.21962        -2.35095
O         52.04378        42.22702         0.66213
H         52.91093        42.64135         0.85027
O         43.04840        27.36142         2.45691
H         42.15573        27.44757         2.86920
O         37.15329        33.37109        -1.81599
H         37.86633        33.07213        -2.42320
O         50.00975        32.33209         2.80700
H         50.49461        32.37742         3.65548
O         35.25545        37.63690        -1.82157
H         35.66288        36.80838        -2.18303
O         31.28267        38.78002         1.55571
H         31.16299        37.99415         2.13022
O         49.49583        42.20919         1.37400
H         50.47581        42.29028         1.47096
O         41.81851        25.04879        -1.14129
H         41.87860        24.15651        -1.54072
O         48.43711        44.49313        -1.44551
H         49.05298        44.18450        -2.14745
O         37.51112        35.94995         1.91918
H         38.41630        35.92141         2.32342
O         31.28429        30.64832         1.93907
H         30.49718        30.19120         2.29747
O         34.35629        40.55310        -2.84705
H         33.42119        40.22768        -2.89829
O         44.40650        46.79964         3.48736
H         43.55223        47.06901         3.89364
O         46.21748        33.95518        -2.70262
H         45.25730        34.04349        -2.90998
