         324
 CSIRO Nanostructure Databank - Neutral Graphene Oxide Data Set
C          1.15394         2.10539         0.64759
C          1.12606         3.49332         0.47160
C          2.35708         1.40924         0.65622
C          2.31343         4.22473         0.24386
C          1.12467         6.46579         0.49468
C          1.13735         7.80384         0.73816
C          2.33489         5.69325         0.27677
C          2.39980         8.51718         0.97565
C          1.44979        10.69120         1.66858
C          1.59553        12.04925         1.95452
C          2.48579        10.00127         1.04113
C          2.71037        12.75398         1.49739
C          2.40530        14.73437         3.12127
C          2.87603        15.93140         3.57611
C          2.77311        14.20894         1.79009
C          3.74676        16.78067         2.80891
C          4.28201        17.96127         3.33771
C          3.57670         2.09975         0.43498
C          3.53105         3.50211         0.17817
C          4.82907         1.42256         0.46837
C          4.78413         4.17363        -0.17412
C          3.53661         6.37779         0.15892
C          3.65611         7.77395         0.60557
C          4.77337         5.70628        -0.25018
C          4.85757         8.55265         0.22759
C          3.66005        10.69220         0.61360
C          3.72109        12.11494         0.72258
C          4.83134         9.97753         0.16778
C          4.78462        12.86580         0.04969
C          3.74515        14.99520         0.97921
C          4.13430        16.37119         1.44821
C          4.68965        14.28477         0.08932
C          5.31934        17.06865         0.80563
C          5.31220        18.67185         2.70294
C          5.91262        18.21288         1.51281
C          6.06194         2.10407         0.34145
C          6.06717         3.51448         0.08058
C          7.30423         1.43581         0.45618
C          7.27188         4.24109         0.09880
C          6.05386         6.39517        -0.02285
C          6.03996         7.84059         0.02786
C          7.23802         5.68905         0.09073
C          7.27032         8.55032        -0.20893
C          5.99087        10.70202        -0.26802
C          5.93262        12.12219        -0.47253
C          7.22051         9.97184        -0.49007
C          7.12625        12.74027        -1.02697
C          5.53791        15.15765        -0.67403
C          6.07214        16.37308        -0.26687
C          7.12643        14.06758        -1.54445
C          7.22309        17.06248        -0.92342
C          6.99777        18.84263         0.89442
C          7.63630        18.33868        -0.26411
C          8.53844         2.09046         0.26384
C          8.53242         3.54074         0.12670
C          9.72974         1.29187         0.41627
C          9.73050         4.32019         0.12727
C          8.41372         6.49754         0.60511
C          8.46430         7.86307        -0.04782
C          9.75069         5.74604         0.56108
C          9.73829         8.46753        -0.44424
C          8.41296        10.63052        -0.83283
C          8.38021        12.03518        -1.07367
C          9.69201         9.89625        -0.96546
C          9.52822        12.67696        -1.63980
C          8.27826        14.82400        -1.83266
C          8.33658        16.32583        -1.81831
C          9.36767        13.96703        -2.15095
C          9.68377        17.08692        -2.01058
C          8.76377        19.04172        -0.69692
C          9.80642        18.46850        -1.45794
C         10.95032         1.65228        -0.16136
C         10.92722         3.78056        -0.35957
C         12.27441         1.25634         0.10184
C         12.23375         4.30164        -0.21493
C         11.06877         6.48636         0.51045
C         10.98886         8.03803         0.31415
C         12.40288         5.70010         0.37607
C         12.27286         8.70481        -0.21341
C         10.96084        10.64362        -1.14875
C         10.84306        11.97906        -1.79514
C         12.19872        10.02170        -0.93372
C         12.15023        12.75642        -2.02569
C         11.23750        15.01972        -2.47975
C         11.07800        16.46817        -2.30390
C         12.22982        14.24734        -1.97023
C         12.31547        17.16626        -1.89542
C         11.00019        19.19491        -1.54960
C         12.28436        18.58534        -1.71584
C         13.41775         2.04496        -0.25321
C         13.36470         3.49543        -0.42325
C         14.67821         1.39446        -0.16159
C         14.63810         4.21447        -0.66989
C         13.55386         6.43166        -0.27046
C         13.55563         7.91293        -0.34090
C         14.67258         5.69701        -0.54288
C         14.70014         8.56716        -0.99537
C         13.42912        10.62918        -1.35232
C         13.44877        12.00781        -1.86758
C         14.67911         9.93459        -1.29112
C         14.76776        12.75469        -1.84212
C         13.45256        14.96248        -1.52890
C         13.49001        16.44602        -1.66136
C         14.74616        14.22346        -1.54924
C         14.72309        17.14062        -1.45894
C         13.48445        19.27050        -1.46071
C         14.71934        18.57527        -1.37059
C         15.94663         2.00381        -0.38958
C         15.93189         3.45306        -0.73070
C         17.14637         1.31336        -0.33119
C         17.21441         4.19196        -0.52935
C         15.98305         6.38363        -0.63705
C         15.97133         7.85749        -0.89731
C         17.24919         5.63903        -0.84764
C         17.20393         8.53062        -1.31678
C         15.95513        10.64116        -1.41004
C         16.01002        12.02944        -1.50043
C         17.19681         9.89965        -1.35451
C         17.26451        12.75129        -1.45975
C         16.01016        14.99760        -1.73635
C         15.97825        16.45358        -1.43291
C         17.29768        14.22324        -1.65225
C         17.17712        17.14700        -1.27393
C         15.94213        19.25384        -1.12884
C         17.16916        18.56932        -1.03533
C         18.45537         1.92153        -0.79308
C         18.47379         3.41618        -0.53930
C         19.73426         1.31698        -0.24595
C         19.74624         4.11725        -0.89149
C         18.41848         6.29342        -1.08921
C         18.43970         7.72930        -1.44308
C         19.73015         5.58707        -1.17233
C         19.76600         8.43614        -1.52062
C         18.48008        10.62072        -1.03625
C         18.46713        12.09556        -1.30732
C         19.73481         9.94029        -1.53895
C         19.71346        12.80087        -1.08466
C         18.51478        14.94630        -1.23830
C         18.47235        16.42867        -1.28970
C         19.67123        14.25486        -0.93246
C         19.68643        17.17279        -0.79766
C         18.36814        19.26260        -0.66406
C         19.59142        18.61109        -0.44066
C         20.92508         2.04354        -0.15975
C         20.97738         3.46512        -0.42531
C         22.17833         1.40015         0.13391
C         22.14642         4.22433        -0.27857
C         20.98215         6.35285        -0.92382
C         20.99061         7.74536        -1.05270
C         22.15542         5.65450        -0.50157
C         22.17885         8.51656        -0.78474
C         21.00834        10.68905        -1.31395
C         20.90161        12.11520        -0.92512
C         22.21417         9.90777        -0.96685
C         22.06759        12.75140        -0.22429
C         20.87578        14.93256        -0.48849
C         20.76902        16.36878        -0.16418
C         22.05407        14.25920        -0.22759
C         21.96418        17.08716         0.38059
C         20.76468        19.26475        -0.01591
C         21.98130        18.57589         0.30209
C         23.37378         2.10965         0.17597
C         23.37542         3.55222         0.05277
C         24.63437         1.43780         0.34582
C         24.55703         4.28465         0.25068
C         23.33597         6.40289        -0.20446
C         23.36870         7.82229        -0.35598
C         24.47928         5.72640         0.33414
C         24.58208         8.54264        -0.11349
C         23.47150        10.64243        -0.83492
C         23.41022        12.16994        -0.60734
C         24.66657         9.95072        -0.34834
C         24.59432        12.84328        -0.07778
C         23.26831        14.94593         0.15715
C         23.24433        16.34478         0.43573
C         24.51306        14.24445         0.22062
C         24.41454        17.04069         0.74799
C         23.14266        19.22307         0.65491
C         24.31594        18.47219         1.23347
C         25.83482         2.12189         0.35171
C         25.83544         3.58346         0.27075
C         27.09130         1.39194         0.31742
C         27.05157         4.24434         0.15030
C         25.51618         6.53271         0.88968
C         25.70830         7.87154         0.45062
C         27.29835         5.62057        -0.41594
C         26.99135         8.54293         0.56034
C         25.82160        10.68235         0.00685
C         25.80715        12.13106         0.02857
C         27.00934         9.98828         0.43466
C         27.02339        12.85381         0.25170
C         25.72093        14.96522         0.47377
C         25.67156        16.36956         0.73784
C         26.98418        14.29363         0.40689
C         26.88266        17.09435         0.97669
C         25.59686        19.21505         1.02738
C         26.82946        18.55911         1.02024
C         28.29914         2.03583         0.30752
C         28.28593         3.50259         0.44564
C         29.60452         1.39172         0.35410
C         29.55500         4.25139         0.54162
C         28.36154         6.42151         0.30750
C         28.20601         7.82360         0.65906
C         29.51729         5.73824         0.59370
C         29.41173         8.51983         1.14733
C         28.20452        10.72713         0.58735
C         28.22678        12.13222         0.39827
C         29.42761        10.05757         1.06772
C         29.51589        12.84529         0.35252
C         28.17089        15.03644         0.60853
C         28.11435        16.41346         0.94672
C         29.48393        14.38784         0.42368
C         29.36235        17.13311         1.27658
C         28.02372        19.30929         0.96624
C         29.30424        18.70272         1.27545
C         30.77024         2.08275         0.35135
C         30.84142         3.57900         0.12508
C         32.01822         4.29107         0.75798
C         30.64887         6.32322         1.40640
C         30.71667         7.82335         1.20682
C         31.94370         5.54989         1.21813
C         31.86862         8.55478         1.27239
C         30.74210        10.73148         0.97111
C         30.76960        12.16396         0.71843
C         31.88704         9.97994         1.13246
C         31.91866        12.92715         0.84464
C         30.72929        15.08228         0.79993
C         30.68069        16.51428         1.04936
C         31.90010        14.34684         0.87045
C         31.81302        17.30762         1.07489
C         30.56146        19.40943         1.03791
C         31.74812        18.73579         1.04650
O         14.07989        14.49540        -0.26653
O         26.79968         5.98591        -1.46853
O          9.76055         8.70713        -1.88017
O          4.71199         4.90332        -1.45808
O         14.23318        12.26091        -3.10253
O         19.15205         7.89932        -2.73361
O         19.50022        16.95358        -2.22443
O         29.18695         9.36112         2.33089
O         17.89803         3.83831         0.73510
O         16.15655         7.31475         0.50168
O          3.92454        17.37984         0.40965
O          3.25168         7.92173         2.02165
O          2.31662        14.97428         0.61077
O         10.20235        14.41274        -3.17362
O         20.90404        16.60139         1.28715
O         20.41755        10.48891        -2.67836
O         28.95347         3.79999         1.81561
O         10.49039         6.05685         1.79232
O         29.28041        17.89267         2.50750
O         10.25852        17.06873        -3.35079
O         11.42466        12.13570        -3.13061
O         10.82571         2.64745        -1.16590
O         16.73438        14.66199        -2.95379
O         13.22814         8.67944         0.90057
O         23.61137        11.63312        -1.92868
O          5.91268        14.63207        -1.91265
O         15.25448         3.79714        -1.96882
O         29.61544        13.67831        -0.85166
O         19.80291         4.60657        -2.28048
O          7.23405        17.06584        -2.38036
O         26.29403         6.06498         1.89754
H         26.04501         5.14859         2.13467
O          8.08815         6.72358         2.00710
H          8.92972         6.98638         2.44898
O         21.92854        12.35844         1.19172
H         21.13645        12.80984         1.55429
O         12.89721         5.47597         1.72584
H         12.10986         5.40291         2.31547
O         18.50561         1.72803        -2.24407
H         19.14997         2.36887        -2.61773
O         10.76520         8.60638         1.62481
H         11.63088         8.57184         2.09458
O         30.28372         6.12574         2.80743
H         29.82513         5.25570         2.87138
O         24.08733        18.39986         2.69400
H         23.27916        17.86064         2.83410
O         18.59293        10.48440         0.43155
H         17.72705        10.71895         0.82918
O         30.93940         3.78532        -1.31658
H         31.78219         3.39220        -1.62505
H          0.21105         1.56564         0.81258
H          0.15871         4.01051         0.52266
H          2.37287         0.32473         0.83387
H          0.15410         5.96472         0.37220
H          0.19349         8.36831         0.75122
H          0.55288        10.15265         2.00321
H          0.81461        12.57594         2.51942
H          1.79636        14.10332         3.78495
H          2.60293        16.26650         4.58831
H          3.92395        18.31063         4.31759
H          4.83794         0.33738         0.64978
H          5.71233        19.57755         3.18087
H          7.30429         0.35278         0.64779
H          7.40809        19.75958         1.34446
H          9.65196         0.36091         0.99705
H          8.96229        20.01930        -0.23069
H         12.45370         0.30851         0.63115
H         10.97908        20.24676        -1.22438
H         14.67045         0.31920         0.07628
H         13.46584        20.35867        -1.30178
H         17.13132         0.23990        -0.08495
H         15.92692        20.34655        -1.00134
H         19.77050         0.22797        -0.08640
H         18.29848        20.34352        -0.46880
H         22.19193         0.30976         0.28229
H         20.74501        20.35853         0.10695
H         24.63905         0.33796         0.38847
H         23.17947        20.32337         0.65117
H         27.04619         0.29279         0.27947
H         25.57483        20.31565         1.02234
H         29.62631         0.29352         0.43466
H         27.97813        20.38739         0.75050
H         31.72267         1.53187         0.40811
H         32.99275         3.77475         0.74183
H         32.85437         6.00705         1.63647
H         32.83734         8.04747         1.38480
H         32.87111        10.46751         1.09921
H         32.87869        12.43593         1.05543
H         32.84915        14.85693         1.08658
H         32.80350        16.84559         0.96192
H         30.52893        20.49002         0.83712
H         32.68836        19.29041         0.91771
