         324
 CSIRO Nanostructure Databank - Neutral Graphene Oxide Data Set
C          1.26596         2.33156        -1.85284
C          1.18945         3.62543        -1.28963
C          2.46842         1.66182        -1.89938
C          2.31670         4.26043        -0.77995
C          1.05332         6.50220        -0.36040
C          1.06897         7.78290         0.10259
C          2.19323         5.60050        -0.12810
C          2.28397         8.44234         0.54177
C          1.11917        10.57911         1.33342
C          1.11660        11.90024         1.63234
C          2.26777         9.90009         0.73591
C          2.05738        12.84967         0.92718
C          1.27110        15.03593         1.86126
C          1.39817        16.44020         2.08481
C          2.34286        14.21399         1.59512
C          2.61864        17.09168         2.04739
C          2.72248        18.52755         1.96168
C          3.65667         2.27462        -1.40091
C          3.58770         3.59729        -0.84321
C          4.88520         1.58407        -1.44117
C          4.79941         4.19747        -0.37422
C          3.47095         6.27580         0.35106
C          3.48236         7.74111         0.48441
C          4.77134         5.52328         0.27171
C          4.77084         8.44452         0.64916
C          3.40875        10.63666         0.47739
C          3.33564        12.12399         0.47970
C          4.72714         9.96093         0.59655
C          4.63674        12.83547         0.47553
C          3.69897        14.77858         1.80516
C          3.85288        16.29257         2.07266
C          4.90317        14.08632         1.23366
C          5.17112        16.98714         1.81106
C          3.91238        19.16597         1.74948
C          5.15345        18.45220         1.57623
C          6.08548         2.18735        -1.01002
C          6.03595         3.53792        -0.51119
C          7.32498         1.50646        -1.09266
C          7.29163         4.20407        -0.22744
C          6.08473         6.29754         0.35457
C          6.04882         7.76521         0.31798
C          7.32791         5.60070         0.01587
C          7.25084         8.45038         0.11810
C          6.00607        10.69300         0.28613
C          5.84490        12.12484         0.04656
C          7.29993         9.94137         0.06590
C          6.81399        12.95512        -0.54145
C          6.24669        14.76453         0.99685
C          6.38291        16.22424         1.29310
C          7.14273        14.21432        -0.05564
C          7.50200        16.95912         0.64800
C          6.32405        19.09093         1.23437
C          7.53072        18.39263         0.85860
C          8.54649         2.11402        -0.71244
C          8.50821         3.47884        -0.27005
C          9.78376         1.42684        -0.86203
C          9.73530         4.16938         0.12949
C          8.55958         6.33561         0.08293
C          8.49644         7.76669         0.12158
C          9.77963         5.63076         0.17111
C          9.74401         8.54238         0.30227
C          8.56224        10.55333        -0.48589
C          8.63948        11.85450        -1.01581
C          9.78207         9.93899        -0.17378
C          9.76564        12.68144        -0.91205
C          8.36227        14.91817        -0.51906
C          8.53122        16.31937        -0.03701
C          9.62072        14.16351        -1.05913
C          9.78275        17.01596        -0.28826
C          8.68739        19.09379         0.55083
C          9.85510        18.43207         0.07296
C         11.03897         2.02093        -0.57520
C         11.05777         3.40619        -0.01921
C         12.25439         1.36245        -0.70248
C         12.26504         4.23741        -0.32660
C         11.07491         6.29434         0.62971
C         11.04679         7.82012         0.47604
C         12.31236         5.67095         0.00868
C         12.28337         8.54713         0.10866
C         11.00515        10.65499        -0.28492
C         10.99256        12.05324        -0.57044
C         12.26022         9.94878        -0.10247
C         12.23388        12.81234        -0.65727
C         10.92224        14.93437        -1.31494
C         10.90833        16.37327        -0.79363
C         12.19283        14.17842        -0.93331
C         12.14125        17.15456        -1.01198
C         11.04829        19.14769        -0.03563
C         12.24117        18.53637        -0.49671
C         13.50573         2.01101        -0.16669
C         13.54928         3.48750        -0.52718
C         14.80982         1.32305        -0.46229
C         14.82230         4.22018        -0.38048
C         13.50438         6.36308        -0.05249
C         13.50088         7.82449         0.05915
C         14.78714         5.66866        -0.26009
C         14.70868         8.55209         0.06751
C         13.48515        10.67403        -0.22404
C         13.48306        12.08824        -0.49757
C         14.71130         9.96405        -0.03858
C         14.72882        12.75037        -0.66766
C         13.43671        14.89748        -1.27556
C         13.47006        16.40605        -1.23986
C         14.75118        14.16758        -1.12697
C         14.71474        17.10739        -0.88914
C         13.46176        19.20422        -0.51171
C         14.70853        18.52460        -0.71340
C         15.99993         2.02432        -0.36689
C         15.99198         3.48823        -0.30115
C         17.26767         1.34941        -0.38049
C         17.28727         4.18117        -0.30416
C         15.97665         6.36342        -0.09155
C         15.95514         7.79062         0.28895
C         17.27920         5.68230        -0.21911
C         17.27543         8.55707         0.34448
C         15.96996        10.68088        -0.06181
C         15.93943        12.07169        -0.44354
C         17.18467        10.01373         0.13281
C         17.20076        12.73208        -0.78811
C         15.96475        14.98861        -0.92240
C         15.94828        16.39438        -0.79917
C         17.22843        14.30066        -1.01229
C         17.19350        17.12062        -0.69841
C         15.93355        19.22378        -0.60786
C         17.18520        18.55622        -0.64685
C         18.49363         1.99473        -0.16252
C         18.50854         3.45955         0.23164
C         19.70557         1.29809        -0.09565
C         19.80449         4.17814        -0.12749
C         18.54802         6.32691         0.31767
C         18.52401         7.81637         0.10096
C         19.81170         5.61440        -0.19794
C         19.84040         8.47562         0.34350
C         18.45158        10.75324         0.09855
C         18.47117        12.14516        -0.40347
C         19.73873         9.99111         0.13684
C         19.64260        12.87588        -0.51919
C         18.47691        15.01241        -0.75578
C         18.44134        16.44166        -0.67294
C         19.67559        14.30273        -0.65413
C         19.67401        17.15240        -0.62650
C         18.41813        19.25905        -0.62538
C         19.66729        18.59086        -0.63778
C         20.96364         1.98354        -0.03208
C         20.96766         3.43055        -0.26282
C         22.13843         1.28252         0.19706
C         22.22496         4.08280        -0.68710
C         20.96494         6.34844        -0.55116
C         20.89196         7.78677        -0.51367
C         22.24377         5.59151        -0.89021
C         21.90672         8.62021        -1.03112
C         20.87950        10.68720        -0.50589
C         20.91248        12.14812        -0.68850
C         22.12091         9.93831        -0.63897
C         22.21411        12.83755        -0.56372
C         20.94573        14.99178        -0.54348
C         20.92157        16.44767        -0.58599
C         22.14715        14.27693        -0.43417
C         22.11897        17.17714        -0.63784
C         20.90688        19.29316        -0.66221
C         22.14335        18.61391        -0.68175
C         23.47029         1.89432         0.03132
C         23.52018         3.32031        -0.47041
C         24.64589         1.32363         0.72492
C         24.79633         4.08298        -0.23197
C         23.61215         6.22033        -0.71601
C         23.80180         7.57166        -1.03078
C         24.74451         5.56281        -0.19982
C         24.83029         8.38465        -0.53606
C         23.40026        10.62832        -0.41610
C         23.39123        12.11988        -0.43450
C         24.68608         9.84928        -0.25845
C         24.62198        12.85203         0.11741
C         23.42264        14.99069        -0.28171
C         23.40130        16.47966        -0.46124
C         24.67367        14.24651        -0.41918
C         24.63996        17.16352        -0.92437
C         23.40643        19.29817        -0.65205
C         24.65176        18.63427        -0.72903
C         25.84225         1.98826         0.86261
C         25.98842         3.37986         0.37037
C         27.00401         1.41747         1.50058
C         27.09488         4.19027         0.92155
C         25.91108         6.30521         0.11532
C         25.96624         7.71757        -0.01961
C         27.02458         5.64733         0.81800
C         27.22769         8.44515         0.07667
C         25.98392        10.59858        -0.09758
C         25.95371        12.09564        -0.00408
C         27.27031         9.86157        -0.27137
C         27.18965        12.82704        -0.34282
C         25.90050        14.83587        -1.04030
C         25.91196        16.37089        -1.07430
C         27.18987        14.19365        -0.56106
C         27.17945        17.08732        -0.82729
C         25.90335        19.25809        -0.74818
C         27.13668        18.51848        -0.75266
C         28.16961         2.14187         1.71029
C         28.21383         3.57751         1.45249
C         29.36275         1.51875         2.23256
C         29.45207         4.32008         1.64598
C         28.31889         6.44246         1.02633
C         28.38979         7.77233         0.41123
C         29.55392         5.69223         1.30210
C         29.70760         8.37376         0.20466
C         28.43998        10.57899        -0.28511
C         28.45893        12.05554        -0.63057
C         29.73530         9.88950        -0.16863
C         29.68587        12.80982        -0.16627
C         28.41693        14.93432        -0.54064
C         28.38783        16.37295        -0.60676
C         29.64753        14.23799        -0.23138
C         29.60273        17.10702        -0.39033
C         28.35112        19.21823        -0.60820
C         29.57794        18.53874        -0.44015
C         30.52486         2.21765         2.38618
C         30.61935         3.62004         2.05366
C         31.84779         4.31308         2.10494
C         30.80228         6.37086         1.30261
C         30.88361         7.76870         0.86049
C         31.94189         5.64708         1.72365
C         32.01200         8.55574         0.98272
C         30.92519        10.65785         0.23369
C         30.87276        12.12544         0.17064
C         32.02297         9.95560         0.69566
C         32.02986        12.89792         0.44704
C         30.84086        14.98278         0.00385
C         30.82838        16.43430        -0.10980
C         32.01595        14.27769         0.34663
C         31.99890        17.19897         0.05721
C         30.78685        19.26779        -0.26726
C         31.97594        18.59809        -0.03259
O         23.70846         2.23170        -1.40864
O          8.60359        14.69478        -1.95568
O         27.32526         6.32344         2.09526
O          6.24736        16.57092         2.70398
O         17.25041        13.33430        -2.10798
O         20.68380        11.26257        -1.87662
O         23.51227        15.93331         0.90083
O          2.57405         5.59364         1.28945
O         14.12950        14.35336        -2.45050
O          3.77162        12.85619        -0.75198
O         12.74243        17.02093        -2.34113
O         10.47565         3.53210         1.27117
O          6.01833        13.90266         2.15625
O         25.88143         3.59172        -1.08740
O         17.49669         4.99948        -1.49649
O         12.76638         3.90478        -1.67936
O         25.14108        16.81872        -2.26425
O         26.11707        11.26625         1.21304
O          4.81898         9.24966         1.87704
O         23.86951        10.09531         0.94267
O         19.28387        10.65003         1.36033
O          7.50437        12.38672        -1.61733
O         10.37299         8.41417         1.64426
O          3.90868        15.31167         3.14032
O         16.57975         8.07855         1.58012
O         22.13909         4.69081        -2.02610
O          5.47478         5.62881         1.54091
O         22.86232         8.10276        -1.90413
O          7.01129        10.51689         1.38697
O         29.96228         8.84321        -1.15616
O         11.19681         6.01413         2.04936
H         10.68721         6.71713         2.51756
O         20.23661         8.27064         1.74896
H         19.84405         9.02364         2.25369
O         24.32715        12.98485         1.53789
H         24.55670        12.11430         1.94617
O         25.84520        14.38270        -2.44827
H         25.39453        15.10601        -2.95057
O         11.02273        15.03913        -2.76142
H         10.12441        15.26231        -3.09470
O         18.55591         6.12063         1.75991
H         19.19404         6.77957         2.13370
O         13.38545         2.00705         1.30296
H         13.30640         1.07628         1.59989
O         18.36118         3.46128         1.67848
H         19.15056         3.03115         2.06706
O         28.53806        12.04765        -2.10687
H         28.42291        12.97166        -2.41873
O          1.31561        13.17512        -0.28682
H          1.98502        13.36597        -0.98508
H          0.35235         1.85917        -2.23899
H          0.21077         4.12211        -1.24141
H          2.52883         0.64910        -2.32267
H          0.15447         6.12028        -0.86516
H          0.16901         8.40427        -0.01465
H          0.31892         9.93818         1.73354
H          0.28490        12.33034         2.20977
H          0.25485        14.62988         1.75287
H          0.47732        17.03944         2.13776
H          1.79583        19.11452         2.04236
H          4.91077         0.55926        -1.84029
H          3.93550        20.26218         1.66343
H          7.33988         0.47735        -1.48039
H          6.32899        20.18858         1.15059
H          9.76403         0.39537        -1.24250
H          8.72451        20.18181         0.70824
H         12.27719         0.31059        -1.02624
H         11.07435        20.20022         0.28352
H         14.82828         0.22441        -0.53955
H         13.48963        20.26672        -0.22698
H         17.26897         0.25981        -0.54249
H         15.91330        20.31790        -0.49357
H         19.71040         0.19987        -0.17145
H         18.40075        20.35931        -0.61654
H         22.08452         0.20581         0.41906
H         20.89514        20.39335        -0.65757
H         24.54546         0.30754         1.13708
H         23.39945        20.39621        -0.57891
H         26.97342         0.35429         1.78365
H         25.96366        20.35472        -0.67955
H         29.32810         0.44622         2.47445
H         28.34036        20.31807        -0.58231
H         31.42897         1.70876         2.75197
H         32.75198         3.77640         2.42706
H         32.92360         6.13965         1.74967
H         32.92759         8.13277         1.42013
H         32.94355        10.49547         0.95821
H         32.97070        12.40195         0.71935
H         32.94763        14.82278         0.54720
H         32.95899        16.70681         0.26024
H         30.76314        20.36569        -0.31563
H         32.90949        19.16251         0.09889
