         324
 CSIRO Nanostructure Databank - Neutral Graphene Oxide Data Set
C          1.37937         1.54510        -0.27343
C          1.41125         2.62583         0.68686
C          2.47027         1.28212        -1.04190
C          2.42294         3.53156         0.65564
C          1.37806         6.61155         1.56504
C          1.32101         7.96894         1.28342
C          2.48041         5.84694         1.15745
C          2.40863         8.60309         0.65234
C          1.16755        10.76857         0.44271
C          1.12601        12.14122         0.23027
C          2.37715        10.04617         0.39227
C          2.30973        12.87544         0.00115
C          1.18296        15.12524        -0.09056
C          1.24676        16.54435        -0.18921
C          2.29479        14.31600        -0.25054
C          2.39255        17.24160        -0.56060
C          2.50922        18.62618        -0.13184
C          3.67850         2.07265        -0.86463
C          3.50246         3.50794        -0.40611
C          4.90171         1.49858        -1.02759
C          4.80143         4.21693        -0.02723
C          3.58237         6.41589         0.47346
C          3.54246         7.82911         0.29433
C          4.79622         5.62756         0.16643
C          4.72001         8.54540        -0.23465
C          3.57937        10.75496         0.11543
C          3.53657        12.16696        -0.02809
C          4.81277        10.01384        -0.10004
C          4.80720        12.91346        -0.08482
C          3.50850        14.93079        -0.82081
C          3.50167        16.43651        -1.11273
C          4.82781        14.31321        -0.57625
C          4.82849        17.03996        -1.30162
C          3.60885        19.44448        -0.03629
C          4.90234        19.13232        -0.60392
C          6.11415         2.13413        -0.56150
C          6.03634         3.52131        -0.09922
C          7.29887         1.43919        -0.61991
C          7.25483         4.20665         0.15808
C          6.03652         6.32314         0.08896
C          6.04134         7.76753        -0.24950
C          7.25368         5.61639         0.17763
C          7.27629         8.54848        -0.22853
C          6.03567        10.65278        -0.27570
C          6.08604        12.12319        -0.12867
C          7.28742         9.92698        -0.39982
C          7.29261        12.85037        -0.61662
C          6.00468        15.02934        -0.66839
C          6.01666        16.44821        -0.98505
C          7.30850        14.34323        -0.45224
C          7.28820        17.25145        -1.10863
C          6.16454        19.37761        -0.12678
C          7.35200        18.67154        -0.58958
C          8.54262         1.96151        -0.04738
C          8.50714         3.43812         0.36010
C          9.83343         1.31339        -0.35966
C          9.81480         4.16767         0.35233
C          8.53767         6.35502         0.23241
C          8.54849         7.83519         0.01460
C          9.79813         5.61090         0.05481
C          9.74782         8.47201        -0.64927
C          8.57490        10.64111        -0.45839
C          8.57867        12.10209        -0.71143
C          9.78013         9.97260        -0.41353
C          9.85035        12.86476        -0.67957
C          8.60198        15.04282        -0.73778
C          8.58743        16.49554        -1.15571
C          9.85369        14.23468        -0.86255
C          9.88053        17.24377        -0.97362
C          8.57352        19.25833        -0.29841
C          9.85456        18.63478        -0.45491
C         11.05338         1.96037        -0.24988
C         11.08730         3.41026         0.08647
C         12.31620         1.34338        -0.49145
C         12.25814         4.16739        -0.51037
C         11.01040         6.29098        -0.07787
C         11.04898         7.74910        -0.36296
C         12.24308         5.60700        -0.09676
C         12.29068         8.52023        -0.08885
C         11.04652        10.68604        -0.31213
C         11.06622        12.11474        -0.43625
C         12.25395         9.99659        -0.06080
C         12.29281        12.78676        -0.31275
C         11.13551        14.96628        -0.97647
C         11.15282        16.46862        -0.88585
C         12.40146        14.22450        -0.63295
C         12.25188        17.11122        -0.09092
C         11.05155        19.29016        -0.20523
C         12.31550        18.60183        -0.14335
C         13.54565         2.06254        -0.45002
C         13.56504         3.44340        -0.30208
C         14.83484         1.30490        -0.71221
C         14.83133         4.25120        -0.45364
C         13.46416         6.28068         0.33380
C         13.47265         7.82658         0.51408
C         14.75240         5.61100         0.20788
C         14.76013         8.53474         0.59210
C         13.50842        10.65478         0.04472
C         13.49307        12.07648        -0.09230
C         14.76420         9.94892         0.27624
C         14.71861        12.79622        -0.28355
C         13.61813        14.94753        -0.16006
C         13.47240        16.34822         0.30876
C         14.79120        14.24404        -0.10045
C         14.67648        17.17086         0.80688
C         13.54946        19.22575        -0.12338
C         14.78832        18.52361         0.13128
C         16.10140         2.06858        -0.36419
C         16.07934         3.46975        -0.10126
C         17.30919         1.39129        -0.31005
C         17.23490         4.11606         0.35003
C         15.88355         6.28815         0.60656
C         15.88216         7.70644         0.90078
C         17.13777         5.52005         0.81910
C         17.14458         8.29167         1.25632
C         15.96216        10.70248         0.00045
C         15.82096        12.01237        -0.55751
C         17.23710        10.38525         0.56972
C         17.72755        13.14583        -0.21804
C         16.02197        14.87975         0.48264
C         15.97217        16.35158         0.83022
C         17.38739        14.25440         0.47534
C         17.26885        17.08748         0.79497
C         16.01823        19.13268         0.06435
C         17.26455        18.47388         0.42234
C         18.53019         2.06891        -0.01719
C         18.49964         3.44095         0.38771
C         19.77664         1.42706        -0.16993
C         19.74006         4.08210         0.72878
C         18.41912         6.25171         1.10436
C         18.39215         7.72736         1.08291
C         19.72239         5.51620         1.11525
C         19.60959         8.53245         0.79989
C         18.56908        10.82176         0.36724
C         18.92384        12.27404        -0.02662
C         19.67136        10.02901         0.79222
C         19.75001        12.77449         1.17943
C         18.46236        14.93938         1.34241
C         18.47820        16.41225         0.97741
C         19.79880        14.26239         1.14438
C         19.72150        17.09499         0.85312
C         18.47960        19.16522         0.38769
C         19.72231        18.50976         0.62528
C         21.00408         2.05545         0.11221
C         20.98143         3.41675         0.63678
C         22.18747         1.36338        -0.33865
C         22.21670         4.18776         0.84616
C         20.98048         6.32561         1.07831
C         20.93353         7.79164         0.76119
C         22.24945         5.61109         0.84422
C         22.19777         8.53142         0.90208
C         20.97297        10.65393         0.86667
C         21.04711        12.05301         1.00771
C         22.21943         9.92130         0.86149
C         22.24070        12.77120         0.80692
C         20.98509        14.93695         0.99232
C         20.97134        16.39695         0.92849
C         22.22871        14.21142         0.82699
C         22.17770        17.09544         0.90211
C         20.96085        19.19912         0.59663
C         22.18651        18.52265         0.75153
C         23.47045         1.62093         0.15991
C         23.46858         3.57567         1.02935
C         24.73333         1.45233        -0.42060
C         24.71263         4.22471         0.85564
C         23.46086         6.31819         0.92901
C         23.43698         7.78424         1.12448
C         24.71273         5.64759         0.87597
C         24.75479         8.54954         0.93242
C         23.46891        10.65414         0.70600
C         23.43625        12.05602         0.56203
C         24.71101         9.96654         0.56698
C         24.60609        12.79751        -0.00659
C         23.46223        14.90224         0.74405
C         23.45083        16.35058         1.02807
C         24.66562        14.23701         0.44075
C         24.75657        17.10001         0.84648
C         23.43686        19.21465         0.64090
C         24.66936        18.56026         0.59757
C         25.91488         2.15753         0.00700
C         25.93293         3.48014         0.62244
C         27.13462         1.59384        -0.42464
C         27.16784         4.16911         0.79958
C         25.96479         6.36211         0.82970
C         25.97800         7.77966         0.67809
C         27.18554         5.62569         0.91194
C         27.15319         8.48395         0.33636
C         25.91353        10.64830         0.19777
C         25.91198        12.05341         0.07085
C         27.16033         9.90383         0.02777
C         27.10676        12.78211        -0.19390
C         25.90147        14.93724         0.25634
C         25.94273        16.34744         0.39659
C         27.08310        14.19275        -0.15101
C         27.11099        17.10316         0.04308
C         25.87249        19.24904         0.33540
C         27.08423        18.56736         0.11088
C         28.37320         2.16460        -0.09047
C         28.38238         3.40522         0.62064
C         29.61991         1.54575        -0.43857
C         29.64499         3.84194         1.07301
C         28.38577         6.41374         0.85346
C         28.37751         7.76527         0.39194
C         29.66245         5.89200         1.19667
C         29.58865         8.39013        -0.03674
C         28.31003        10.51051        -0.50784
C         28.25945        12.00315        -0.78517
C         29.50747         9.68432        -0.66893
C         29.43743        12.83595        -1.28665
C         28.33315        14.96984        -0.32325
C         28.26271        16.44447        -0.36986
C         29.56980        14.27158        -0.82849
C         29.41739        17.23456        -0.81986
C         28.28142        19.29179        -0.05308
C         29.47980        18.66118        -0.44146
C         30.82997         2.14442        -0.16285
C         30.87478         3.36491         0.57785
C         32.05974         4.17402         0.71603
C         30.87340         6.37973         0.70007
C         30.82092         7.65071         0.00393
C         32.05724         5.55213         0.76176
C         31.94594         8.13453        -0.68778
C         30.62923        10.00495        -1.47285
C         30.68298        12.28223        -1.86443
C         31.82158         9.27192        -1.47293
C         31.81031        13.00653        -2.09661
C         30.75860        15.05171        -1.28516
C         30.72544        16.53736        -1.20813
C         31.83771        14.41722        -1.81809
C         31.95102        17.30394        -1.00513
C         30.69426        19.34947        -0.55398
C         31.90930        18.66038        -0.77871
O         15.78550        15.33719         1.88506
O          5.25369         8.01677        -1.47996
O          7.75661        12.41875        -1.92202
O          8.67357         7.33528         1.37362
O          2.45173         4.52914         1.61907
O         29.38768        14.44681         0.62010
O         29.79651        17.04484        -2.23468
O         12.03019        14.49339        -2.03772
O         20.21090         8.04473        -0.49644
O         28.32982        12.47856        -2.19214
O          8.08485        14.88397         0.65950
O         24.27016        16.72287         2.18570
O         10.80137        17.12565        -2.12692
O          3.22242        15.45989        -2.16332
O         20.42229         5.89117         2.36266
O          7.93383        16.90679        -2.38948
O         12.32758        16.49426         1.23762
O          8.40317         2.39950         1.36414
O         17.59032         5.70530         2.20418
O         16.89341        12.60934        -1.21435
O         23.49030         2.24203         1.42872
O         29.68698         4.80986         2.09194
O         13.22164         6.96428         1.63963
O         17.10497         9.60402         1.72550
O          4.82044        18.35133        -1.77240
O         30.58940        11.01998        -2.43447
O         24.20268         8.26236         2.27409
O          5.61647        12.67042         1.14030
O         10.74319         3.78284         1.44023
O         12.01479         8.01542        -1.45930
O         24.32270        12.86853        -1.47361
H         25.15041        13.16018        -1.91466
O         19.09597        12.32822         2.38631
H         18.73864        13.12492         2.85760
O         19.72375        12.30597        -1.21425
H         19.13034        12.17019        -1.98282
O         14.93329         4.54785        -1.91092
H         15.21185         3.71957        -2.35798
O         14.42961        17.52417         2.18647
H         14.32674        16.68602         2.68741
O          2.94662         4.25306        -1.53715
H          3.58714         4.19767        -2.27719
O         12.04302         4.16353        -1.96818
H         12.85817         4.54897        -2.36757
O          9.49105         8.30363        -2.06979
H         10.34884         8.44829        -2.53111
O         18.16601        14.80692         2.76072
H         17.21895        15.07613         2.87927
O         14.83010         0.03426        -0.05461
H         14.79243         0.18876         0.91146
H          0.48898         0.90356        -0.32205
H          0.61746         2.70949         1.44010
H          2.51322         0.38471        -1.67594
H          0.56304         6.11940         2.11087
H          0.44379         8.54642         1.60194
H          0.22178        10.24083         0.62442
H          0.15545        12.65513         0.24875
H          0.24003        14.68963         0.26918
H          0.37982        17.11534         0.17720
H          1.59063        19.01091         0.34247
H          4.97137         0.46303        -1.39478
H          3.50440        20.37602         0.54121
H          7.31756         0.44945        -1.10123
H          6.29798        20.10207         0.69126
H          9.80641         0.26557        -0.69729
H          8.56391        20.27696         0.12019
H         12.35414         0.26081        -0.68256
H         11.03548        20.36931         0.01202
H         14.85983         1.08005        -1.81778
H         13.60118        20.31438        -0.28204
H         17.33372         0.31338        -0.52694
H         16.08349        20.17200        -0.29398
H         19.79051         0.39577        -0.55301
H         18.48217        20.23874         0.14630
H         22.06410         0.63667        -1.15606
H         20.96505        20.28682         0.43130
H         24.84296         0.75832        -1.26788
H         23.41517        20.30407         0.48631
H         27.11382         0.64686        -0.98394
H         25.86004        20.34725         0.27119
H         29.59211         0.59219        -0.98506
H         28.27528        20.37911         0.11414
H         31.76715         1.69202        -0.51739
H         33.03199         3.67189         0.58907
H         33.03473         6.05272         0.68122
H         32.89138         7.57772        -0.67515
H         32.64703         9.60604        -2.11445
H         32.65505        12.54243        -2.62039
H         32.72273        14.99032        -2.12617
H         32.91359        16.77392        -0.97950
H         30.71837        20.42871        -0.34648
H         32.85248        19.21878        -0.69176
