         424
 CSIRO Nanostructure Databank - Neutral Graphene Oxide Data Set
C          1.30183         2.26067         0.88178
C          1.29508         3.65428         0.95867
C          2.49702         1.55696         0.99099
C          2.49286         4.36982         1.17857
C          1.35197         6.57284         1.37123
C          1.36333         7.98279         1.33017
C          2.51268         5.83142         1.22380
C          2.52963         8.69003         1.04434
C          1.38044        10.93094         1.30210
C          1.46618        12.26109         1.49149
C          2.54778        10.13502         0.91888
C          2.77912        12.97503         1.25900
C          1.57713        15.23543         1.41634
C          1.60031        16.63297         1.35608
C          2.67873        14.47048         1.01740
C          2.76110        17.31328         0.95617
C          2.83541        18.75074         0.95398
C          3.71541         2.24777         1.19417
C          3.70632         3.66261         1.29650
C          4.95491         1.52449         1.20076
C          4.95111         4.42284         1.69923
C          3.78231         6.52321         1.06651
C          3.76516         7.96859         0.86521
C          4.97663         5.83000         1.12836
C          4.93339         8.64713         0.51179
C          3.67716        10.78693         0.45634
C          3.51519        12.26407         0.11501
C          4.90079        10.06255         0.18466
C          4.81736        12.95634        -0.25793
C          3.84423        15.13018         0.53972
C          3.90548        16.55681         0.55598
C          4.97126        14.38914         0.04960
C          5.10865        17.21961         0.19267
C          3.98861        19.39333         0.60957
C          5.17063        18.65655         0.23583
C          6.18362         2.17164         1.25109
C          6.24498         3.63012         1.49130
C          7.38877         1.46381         0.97930
C          7.52324         4.33696         1.05454
C          6.28865         6.59342         1.14201
C          6.19304         7.93311         0.43116
C          7.46802         5.75693         0.67889
C          7.27811         8.51182        -0.16743
C          6.03453        10.68895        -0.31458
C          6.06147        12.14727        -0.55201
C          7.22907         9.89783        -0.78789
C          7.35960        12.84711        -0.54646
C          6.18711        15.02549        -0.23707
C          6.26560        16.46271        -0.16046
C          7.38549        14.25312        -0.51337
C          7.47536        17.12809        -0.46391
C          6.36181        19.30760        -0.06847
C          7.53476        18.57541        -0.43850
C          8.57084         2.10782         0.61353
C          8.63355         3.51869         0.53748
C          9.71311         1.26266         0.08668
C          9.79578         4.18956         0.06323
C          8.55802         6.31688         0.03856
C          8.50365         7.72765        -0.41411
C          9.76446         5.57226        -0.17432
C          9.78342         8.47169        -0.67721
C          8.55231        10.65756        -0.63505
C          8.57359        12.08232        -0.61691
C          9.77477         9.95666        -0.62210
C          9.82348        12.77195        -0.71034
C          8.63568        14.94385        -0.66675
C          8.66460        16.37000        -0.71734
C          9.84676        14.20433        -0.78898
C          9.88697        17.03791        -0.98602
C          8.70195        19.24049        -0.78392
C          9.90963        18.52153        -1.29407
C         11.02804         2.00174         0.00579
C         11.03444         3.42685        -0.07661
C         12.22253         1.30236        -0.01862
C         12.25294         4.11208        -0.15863
C         11.02236         6.23725        -0.70977
C         11.06005         7.74677        -0.53439
C         12.22801         5.61073        -0.00663
C         12.24688         8.41481        -0.47898
C         11.01326        10.63594        -0.59169
C         11.04634        12.04036        -0.71855
C         12.30007         9.90953        -0.26434
C         12.30922        12.73266        -0.89113
C         11.08385        14.89290        -0.96336
C         11.07506        16.30814        -1.09132
C         12.32091        14.14541        -1.03055
C         12.33403        17.05540        -1.33058
C         11.18922        19.17023        -0.82867
C         12.37966        18.48757        -0.92378
C         13.47712         1.97708        -0.12325
C         13.47972         3.41039        -0.19317
C         14.70207         1.27889        -0.12716
C         14.72282         4.11729        -0.29523
C         13.51972         6.28734        -0.37839
C         13.51444         7.68671        -0.51379
C         14.72437         5.55572        -0.41914
C         14.73003         8.38684        -0.74047
C         13.53393        10.55448        -0.87139
C         13.52509        11.99545        -1.03506
C         14.69725         9.81491        -1.00375
C         14.73150        12.69312        -1.29208
C         13.56067        14.81797        -1.22549
C         13.61009        16.28696        -1.39392
C         14.75839        14.10306        -1.31705
C         14.88789        16.97665        -1.09773
C         13.64867        19.09344        -0.69122
C         14.86914        18.39719        -0.80862
C         15.93875         1.96213        -0.20451
C         15.93810         3.40247        -0.30625
C         17.17225         1.26921        -0.17809
C         17.18284         4.10434        -0.41165
C         15.95691         6.25335        -0.58937
C         15.95443         7.66927        -0.76426
C         17.18423         5.52394        -0.56152
C         17.21374         8.35850        -0.94916
C         15.95995        10.45369        -1.43452
C         15.98000        11.96276        -1.58047
C         17.23285         9.75540        -1.19655
C         17.26274        12.68030        -1.37170
C         16.04624        14.83642        -1.65145
C         16.06784        16.26428        -1.14129
C         17.26903        14.04574        -1.26032
C         17.33242        16.93562        -0.96387
C         16.10923        19.06317        -0.67278
C         17.33369        18.37312        -0.78343
C         18.41127         1.95232        -0.23333
C         18.40921         3.38859        -0.36354
C         19.64613         1.26379        -0.16140
C         19.64778         4.09573        -0.41128
C         18.42090         6.22448        -0.69362
C         18.42261         7.62525        -0.90159
C         19.65222         5.50468        -0.58960
C         19.70505         8.29874        -1.30921
C         18.47040        10.48670        -1.21716
C         18.49404        11.91501        -1.26485
C         19.69707         9.78690        -1.10638
C         19.74047        12.59535        -1.31845
C         18.55572        14.73351        -0.85716
C         18.54353        16.23443        -1.00197
C         19.73233        14.08675        -1.59606
C         19.79427        16.92040        -0.97648
C         18.57154        19.04787        -0.69708
C         19.79531        18.36024        -0.81584
C         20.88474         1.95384        -0.15542
C         20.88101         3.38703        -0.26127
C         22.12734         1.27777        -0.04703
C         22.10506         4.10499        -0.17512
C         20.89338         6.22913        -0.54658
C         20.92387         7.62245        -0.75565
C         22.10063         5.53077        -0.26346
C         22.10948         8.36135        -0.51576
C         20.92672        10.48305        -1.01840
C         20.94058        11.90029        -1.20125
C         22.13843         9.78495        -0.70944
C         22.26274        12.57988        -1.47310
C         21.04055        14.77518        -1.27417
C         21.02468        16.22096        -1.09010
C         22.21216        14.08151        -1.27560
C         22.26079        16.93100        -1.00417
C         21.02700        19.04981        -0.73856
C         22.25372        18.36471        -0.81733
C         23.35185         1.97970         0.01469
C         23.33748         3.41467        -0.00561
C         24.60890         1.31167         0.08737
C         24.55682         4.15043         0.12262
C         23.30030         6.26768        -0.05110
C         23.27360         7.67694        -0.08658
C         24.53637         5.56934         0.16096
C         24.42162         8.44099         0.50054
C         23.35741        10.52219        -0.47410
C         23.41367        11.91530        -0.73998
C         24.49954         9.86798         0.04874
C         24.56285        12.65159        -0.34896
C         23.54164        14.78280        -1.36181
C         23.50456        16.26832        -1.07847
C         24.61503        14.06794        -0.57875
C         24.74157        16.95784        -0.99933
C         23.48327        19.05112        -0.71608
C         24.74575        18.42313        -0.82007
C         25.81728         2.02189         0.14618
C         25.80246         3.45894         0.19247
C         27.08514         1.35504         0.12915
C         27.02013         4.19333         0.27793
C         25.75475         6.31146         0.31335
C         25.73615         7.71898         0.39808
C         27.00297         5.61481         0.36044
C         26.93526         8.45540         0.59690
C         25.69375        10.58225         0.34365
C         25.69288        11.99251         0.21765
C         26.88918         9.87186         0.70611
C         26.81523        12.79827         0.82739
C         25.81017        14.76976        -0.38784
C         25.90827        16.13085        -0.83079
C         26.96649        14.14746         0.16995
C         27.20695        16.69206        -0.87336
C         25.86608        19.28750        -0.60921
C         27.21678        18.93363        -0.88266
C         28.28301         2.05734         0.17800
C         28.27426         3.50485         0.29862
C         29.54442         1.38602         0.01491
C         29.47519         4.23240         0.37979
C         28.22084         6.35421         0.47683
C         28.19240         7.76109         0.63318
C         29.47327         5.65011         0.44488
C         29.42534         8.52276         0.70972
C         28.08667        10.57974         1.28807
C         28.13496        12.06807         1.01364
C         29.38853         9.88344         0.95270
C         29.27037        12.78956         1.29420
C         28.14383        14.87444         0.35567
C         28.29143        16.23019        -0.12145
C         29.23073        14.23158         1.06657
C         29.35033        17.22024         0.47497
C         28.43551        19.36041        -0.41356
C         29.65397        18.42670        -0.53174
C         30.74793         2.06981         0.06416
C         30.76791         3.48640         0.59292
C         31.98257         1.43535        -0.22526
C         31.98188         4.27460         0.18362
C         30.70075         6.39380         0.41918
C         30.69157         7.81809         0.50417
C         31.94267         5.69083         0.24291
C         31.90720         8.54488         0.46963
C         30.60787        10.75295         0.76107
C         30.56824        12.01420         1.67185
C         31.91634         9.97368         0.75807
C         31.90199        12.76903         1.55433
C         30.21397        15.09518         1.50638
C         30.50550        16.41382         1.06952
C         32.06450        14.06903         1.94434
C         31.74205        16.95066         1.45411
C         30.94161        19.22678        -0.38793
C         31.94108        19.05179         0.50918
C         33.18876         2.15081        -0.27018
C         33.17865         3.59484        -0.10098
C         34.41733         1.49967        -0.55831
C         34.39561         4.32372        -0.24640
C         33.15793         6.42978         0.12260
C         33.14783         7.84798         0.27338
C         34.38977         5.74350        -0.09258
C         34.39450         8.54006         0.28111
C         33.10637        10.64475         0.86868
C         33.17663        11.97769         1.57141
C         34.37584        10.00271         0.47970
C         34.41894        12.81441         1.32432
C         33.18489        14.91897         1.58227
C         33.05133        16.30422         1.47309
C         34.42250        14.19111         1.32435
C         34.25050        17.07186         0.84110
C         33.31377        19.47635         0.47374
C         34.33761        18.62018         0.90987
C         35.61711         2.20771        -0.66512
C         35.61955         3.63937        -0.49589
C         36.86008         1.53843        -0.92306
C         36.83738         4.36322        -0.57421
C         35.62001         6.46237        -0.09894
C         35.60919         7.86150         0.14014
C         36.85692         5.76882        -0.34078
C         36.92353         8.50650         0.52292
C         35.66220        10.74133         0.63704
C         35.71547        12.05330         1.39011
C         36.94786        10.00723         0.51023
C         36.93838        12.84382         0.99880
C         35.65613        14.96708         1.17729
C         35.59688        16.38101         1.12152
C         36.90344        14.28264         1.08674
C         36.81807        17.10348         1.08780
C         35.59386        19.24034         1.04626
C         36.82183        18.54906         1.12032
C         38.04100         2.23759        -1.05667
C         38.05586         3.68009        -0.91023
C         39.31199         1.55608        -1.26025
C         39.24488         4.39557        -1.06837
C         38.09456         6.47357        -0.38980
C         38.14363         7.87506        -0.10264
C         39.29521         5.79273        -0.76595
C         39.33412         8.58097        -0.19643
C         38.11464        10.71667         0.47663
C         38.10457        12.15541         0.72763
C         39.33467        10.09702        -0.18030
C         39.39062        12.86967         0.84370
C         38.11669        15.01426         0.96112
C         38.07829        16.43494         1.02210
C         39.37442        14.34101         0.82615
C         39.30665        17.16983         0.99572
C         38.02856        19.25999         1.16636
C         39.27938        18.59800         1.10181
C         40.45125         2.23551        -1.49563
C         40.45279         3.72873        -1.68038
C         41.73367         4.39594        -1.25625
C         40.54054         6.48095        -0.74394
C         40.57076         7.89140        -0.48382
C         41.75463         5.70186        -0.90105
C         41.77779         8.62102        -0.43364
C         40.66598        10.71149         0.17553
C         40.70705        12.14017         0.58052
C         41.81266         9.98479        -0.05552
C         41.84016        12.99741         0.21436
C         40.57643        15.05278         0.72968
C         40.55865        16.49779         0.86251
C         41.78623        14.34814         0.37090
C         41.74486        17.26132         0.87902
C         40.49518        19.32363         1.11133
C         41.70819        18.65320         1.00832
O         15.90759        11.10798        -2.76459
O         27.28312        17.79484        -1.72228
O          7.23586         4.02650         2.48923
O         12.95635        16.77068        -2.63980
O          5.18009        12.63311        -1.64604
O          9.00037         7.90169        -1.81373
O         30.98890        14.67795         2.59844
O         31.71822        18.31305         1.68639
O         34.98634        10.77899        -0.66346
O         40.21608        12.33331         1.95430
O         23.97011        14.66192        -2.76796
H         23.71932        13.74938        -3.06445
O          9.84527         0.05769         0.84787
H         10.05154         0.30284         1.77290
O         30.47199        11.55186         3.04211
H         30.24882        12.32251         3.60553
O         37.03526         8.17024         1.96171
H         37.84390         8.60499         2.30895
O         18.77740        14.46357         0.56083
H         18.09473        14.94615         1.07195
O         22.52266        12.36044        -2.91430
H         21.73339        12.69190        -3.39790
O         29.82408        17.86810        -1.84356
H         28.93868        17.75811        -2.26415
O          7.03958         9.72427        -2.22936
H          7.73717         9.08818        -2.52374
O          2.65286        12.34438        -1.04280
H          3.22865        12.20346        -1.82921
O         28.65845        17.82383         1.60142
H         28.58745        17.15499         2.31400
O         24.12997         8.51116         1.96251
H         24.13885         7.58978         2.30032
O          9.88721        18.63860        -2.76693
H         10.68112        18.16977        -3.10565
O         27.88511        10.46775         2.74934
H         27.07990        10.99537         2.95459
O          3.60914        12.81123         2.44540
H          3.12822        13.19323         3.20868
O         19.54036        14.26321        -3.02404
H         18.58985        14.11085        -3.22544
O         11.10451         5.96490        -2.12805
H         10.36865         6.46447        -2.55093
O         30.89202         3.34247         2.05919
H         30.12314         2.81344         2.36195
O          6.54121         6.90664         2.55077
H          6.32931         6.08879         3.06313
O         34.02742        16.82558        -0.58863
H         34.78134        17.21164        -1.08276
O         19.78726         8.11253        -2.78355
H         19.00000         8.55199        -3.17194
O         35.94755        11.72980         2.79827
H         35.06912        11.55991         3.21856
O          4.84237         4.62944         3.15644
H          5.15323         3.80959         3.59611
O         39.15728        10.48202        -1.60543
H         39.86934        10.03706        -2.11355
O         33.27102        11.55275         3.00643
H         32.35609        11.27107         3.27194
O         16.10794        14.93444        -3.11503
H         15.30657        15.41787        -3.41264
O         12.45446        10.09048         1.19217
H         13.18454         9.50396         1.48400
O         26.34571        13.06365         2.21839
H         26.96293        13.72195         2.60444
O         30.50195        11.28890        -0.59886
H         30.62064        10.54738        -1.22920
O         40.35202         3.94990        -3.13846
H         40.33313         4.92040        -3.27958
O         12.02527         5.87854         1.41838
H         12.73591         5.42068         1.91428
H          0.35961         1.71938         0.71782
H          0.34447         4.19177         0.84133
H          2.50778         0.46088         0.90939
H          0.39086         6.06722         1.53843
H          0.41223         8.50948         1.48150
H          0.42921        10.42116         1.50972
H          0.59012        12.81332         1.86126
H          0.66689        14.74537         1.78836
H          0.71371        17.20611         1.66319
H          1.94324        19.32422         1.24530
H          4.92862         0.43654         1.04004
H          4.03879        20.49198         0.62001
H          7.34773         0.36622         0.91520
H          6.40863        20.40635        -0.03917
H          9.43765         0.94098        -0.95886
H          8.71792        20.34112        -0.77964
H         12.20601         0.20513         0.05813
H         11.18121        20.23222        -0.54025
H         14.69744         0.18068        -0.06049
H         13.67600        20.16652        -0.44955
H         17.16771         0.17210        -0.09374
H         16.11908        20.15020        -0.50376
H         19.64295         0.16668        -0.07706
H         18.58005        20.13693        -0.54086
H         22.13609         0.17829        -0.00302
H         21.02476        20.14235        -0.60865
H         24.63079         0.21163         0.07203
H         23.45415        20.14148        -0.56649
H         27.10541         0.25858         0.03827
H         25.65320        20.28355        -0.19134
H         29.53800         0.31313        -0.23245
H         28.50101        20.21901         0.26904
H         31.98456         0.36242        -0.47228
H         31.17799        19.81592        -1.28765
H         34.42054         0.40764        -0.69421
H         33.57873        20.49719         0.15469
H         36.85975         0.44166        -1.01419
H         35.62600        20.34074         1.02405
H         39.32090         0.45717        -1.19473
H         38.00240        20.35878         1.21457
H         41.39993         1.69826        -1.64631
H         42.67500         3.83520        -1.35772
H         42.72099         6.17856        -0.68266
H         42.73409         8.11733        -0.62401
H         42.79697        10.45576         0.08365
H         42.73859        12.53716        -0.22195
H         42.67669        14.93724         0.11021
H         42.72170        16.76555         0.80271
H         40.46913        20.41899         1.20024
H         42.65004        19.21945         1.02328
