         283
 CSIRO Nanostructure Databank - Neutral Graphene Oxide Data Set
C        -11.26641         0.83168        -0.62828
C        -10.01414         1.56141        -0.46424
C         -8.79515         0.75967        -0.27355
C         -7.50008         1.44813        -0.28393
C         -6.33570         0.78676        -0.05825
C         -5.03318         1.53542        -0.01033
C         -3.81504         0.68920        -0.28628
C         -2.56047         1.40972         0.04623
C         -1.28497         0.66337         0.13561
C         -0.02277         1.43219         0.20848
C          1.16441         0.75671         0.20705
C          2.43938         1.49045         0.41169
C          3.75133         0.79689         0.25699
C          4.95585         1.26661         1.07326
C          6.23076         0.69431         0.45483
C          7.45229         1.53768         0.36307
C          8.81763         1.02657         0.82077
C          9.98542         1.62763         0.10206
C         11.07976         0.79515        -0.42154
C         -9.98647         2.92921        -0.42937
C         -8.70216         3.62768        -0.05142
C         -7.54570         2.90054        -0.74008
C         -6.23252         3.69691        -0.53662
C         -5.03336         2.80892        -0.90670
C         -3.70120         3.56922        -0.77414
C         -2.47756         2.85551        -0.30894
C         -1.25228         3.58645         0.07678
C         -0.10547         2.88443         0.34100
C          1.07624         3.58402         0.90194
C          2.35185         2.82136         1.11230
C          3.65067         3.53920         1.41304
C          4.95935         2.79155         1.37153
C          6.25629         3.58836         1.32213
C          7.39575         3.06562         0.44871
C          8.77791         3.65349         0.86851
C          9.90206         2.98944         0.06821
C         -8.60368         5.13232        -0.24288
C         -7.49705         5.79575        -0.65093
C         -6.31926         5.05833        -1.29916
C         -4.96995         5.80835        -1.18952
C         -3.70582         5.07706        -0.81824
C         -2.52111         5.81164        -0.25798
C         -1.18883         5.06063        -0.25459
C         -0.03266         5.74453         0.44292
C          1.07459         5.06391         0.86016
C          2.42034         5.72513         0.82963
C          3.64116         5.05674         1.41072
C          4.94234         5.82375         1.51951
C          6.26672         5.08737         1.49291
C          7.51309         5.82834         1.07551
C          8.65659         5.16381         0.77874
C         -7.36244         7.26661        -0.28906
C         -6.32632         8.01513        -1.13692
C         -4.97837         7.31223        -1.05555
C         -3.74404         7.97307        -0.53103
C         -2.53039         7.17302        -0.17234
C         -1.21694         7.94361        -0.17915
C         -0.04450         7.22652         0.46978
C          1.25011         7.98097         0.48620
C          2.50299         7.16213         0.44143
C          3.81046         7.90103         0.44808
C          4.97733         7.30332         1.17860
C          6.25467         8.07791         1.13220
C          7.58852         7.34995         1.24292
C         -6.20505         9.48365        -0.78745
C         -5.10789        10.09136        -0.31965
C         -3.85781         9.37733         0.15021
C         -2.56419        10.01118        -0.24932
C         -1.30800         9.44310         0.32781
C         -0.00786        10.20523        -0.10762
C          1.29965         9.42076         0.09628
C          2.49591        10.03445        -0.07870
C          3.81141         9.34794         0.07109
C          5.07375        10.10757         0.28479
C          6.22052         9.47681         0.60588
C        -11.34742        -0.50344        -0.44148
C        -10.16091        -1.31184        -0.09465
C         -8.86012        -0.60043        -0.08797
C         -7.63559        -1.40746         0.14833
C         -6.28103        -0.69110         0.29527
C         -5.14161        -1.36030        -0.49712
C         -3.83184        -0.65542        -0.42041
C         -2.57322        -1.48013        -0.20232
C         -1.27916        -0.69472        -0.52789
C         -0.03557        -1.48942        -0.19386
C          1.19921        -0.73084         0.15923
C          2.51869        -1.43161         0.00162
C          3.81092        -0.65459        -0.27044
C          4.97241        -1.52039         0.24205
C          6.27942        -0.82238         0.52755
C          7.52106        -1.57349         0.18431
C          8.74288        -0.93210        -0.41791
C         10.07992        -1.51265         0.02652
C         11.16312        -0.56125        -0.46554
C        -10.20439        -2.80763        -0.26546
C         -8.94181        -3.60337        -0.60057
C         -7.66868        -2.89658        -0.11311
C         -6.37379        -3.65998        -0.37514
C         -5.15136        -2.82391        -0.75353
C         -3.86411        -3.64941        -0.99118
C         -2.55766        -2.83847        -0.89495
C         -1.25141        -3.57317        -0.80568
C         -0.02745        -2.83559        -0.35370
C          1.25079        -3.63932        -0.16094
C          2.47248        -2.82778        -0.56635
C          3.74380        -3.52574        -0.93481
C          4.99649        -2.93614        -0.29976
C          6.30219        -3.61565        -0.52507
C          7.48564        -2.98449        -0.28880
C          8.79054        -3.63708        -0.51246
C          9.98043        -2.94983        -0.50757
C         -9.03606        -5.06329        -0.09697
C         -8.14101        -5.80822         0.53564
C         -5.92395        -4.43357         0.87333
C         -4.84609        -5.40368         0.53077
C         -3.77783        -4.91626        -0.14097
C         -2.53009        -5.72474        -0.23296
C         -1.25088        -5.03967        -0.53895
C         -0.06403        -5.69278        -0.39758
C          1.13697        -4.94237        -0.96042
C          2.42543        -5.75797        -1.08007
C          3.75489        -5.01239        -1.37648
C          4.96936        -5.71735        -0.72749
C          6.29177        -5.00293        -1.14178
C          7.56432        -5.77062        -0.82473
C          8.73168        -5.09425        -0.67006
C         -7.44400        -6.68615         1.25396
C         -6.24970        -7.48548         0.72214
C         -4.93294        -6.78774         1.07092
C         -3.67990        -7.57278         1.18450
C         -2.47011        -7.03339         0.48630
C         -1.16300        -7.69875         0.91965
C          0.07351        -6.99960         0.30762
C          1.30971        -7.80231         0.04624
C          2.44909        -7.20957        -0.73044
C          3.73765        -7.92797        -0.59587
C          5.02087        -7.23607        -1.03247
C          6.25705        -7.88777        -0.36565
C          7.54136        -7.28578        -0.97155
C         -6.18987        -8.95866         1.09377
C         -5.05617        -9.66648         1.24421
C         -3.66737        -9.08343         1.40858
C         -2.51984        -9.76422         0.65625
C         -1.29781        -9.19080         0.54554
C         -0.04532       -10.02950         0.32353
C          1.27354        -9.28590         0.13427
C          2.45007        -9.95168        -0.03206
C          3.71783        -9.26526        -0.29683
C          4.97551       -10.01674        -0.34952
C          6.16790        -9.39511        -0.46105
O          1.95579        -1.28357         1.32390
O         -4.01816         5.43657        -2.22694
O          9.05556         3.31402         2.23940
H          8.35544         3.72039         2.80546
O          1.41684         2.95277         2.20533
O          2.17814        -6.78825        -2.11370
O         -3.31687        -9.30492         2.79835
H         -2.50293        -8.75116         2.95983
O          4.08999         5.60427         2.68034
O          3.29333         1.69764        -0.79496
O         -5.46177        -1.87353        -1.82638
O          7.12465        -1.37572         1.57124
O         -6.17782        -4.11916         2.01940
O          4.08938         8.29384        -0.93748
O         -4.25574        -6.89132         2.34950
O          4.04521        -0.55491        -1.68207
H          3.61274         0.26615        -2.01142
O         -7.79281        -2.38817         1.23607
O         -1.09788        -7.73643         2.31000
O         -2.66880        -7.00880        -0.96202
O          4.26098         3.02007         2.62719
O          5.43652         8.03793         2.36173
O          6.56139         4.18172         2.61310
O         -4.72431         1.98785         1.40614
O         -4.01202         7.96684        -1.95430
O          4.67738        -2.61432         1.11927
O          2.58369         6.12447        -0.59202
O         -2.57055        -1.80563         1.20628
H         -2.58398        -0.95725         1.71262
O         -6.89914         7.33237         1.06645
H         -7.32698         6.61950         1.58450
O         -5.17738         2.39599        -2.27566
H         -4.27110         2.23979        -2.63320
O          2.96413        -2.79129        -1.93728
O          8.89130         0.46779         1.90713
O          3.88824        -5.02436        -2.80203
H          3.27708        -4.33658        -3.15258
O         -2.06514         0.92855         1.35046
O         -2.74248         3.04204        -1.76892
O         -6.76794         7.93047        -2.50475
H         -6.01085         8.17521        -3.07860
O          4.75906        -5.51879         0.67588
H          5.46597        -6.00270         1.17023
O         -1.75429        -3.00439        -2.09725
O          8.15241         7.63641         2.52703
H          7.42757         7.57098         3.18702
O         -4.00768         9.15154         1.54877
H         -3.12474         9.25178         1.98455
O         -8.54395         3.42614         1.38988
H         -9.39052         3.65925         1.82517
O         -0.28132       -10.87365        -0.80857
H          0.55386       -11.32575        -1.04518
O         -6.58136        -4.59759        -1.45512
H         -5.74821        -4.67983        -1.98047
O          1.16457        -7.03636         1.28571
O          0.81429        -4.54481        -2.31046
H          0.91788        -5.34455        -2.87418
O          0.48880         7.75103         1.73561
O         -7.88315         2.83083        -2.13440
H         -7.07914         2.55489        -2.63011
O         -5.89512         1.83981         2.24101
H         -5.95113         0.84528         2.36097
O         -0.80920         5.11389        -1.68184
H         -1.45810         4.54020        -2.16339
O        -10.37401        -2.26054         1.03887
O          7.12272         3.59759        -0.86534
H          6.85067         2.84634        -1.44617
O         -5.87760        -0.80065         1.68779
H         -6.36776        -1.57776         2.06470
O          6.72598         1.13022        -0.84458
O         -1.40852         9.48831         1.75885
H         -0.65248         8.98280         2.15182
O         -1.25067        -0.38103        -1.93882
H         -1.25167        -1.24016        -2.43044
O          6.31730        -7.58993         1.06176
H          5.66817        -8.16573         1.52006
O         -6.05774         4.13070         0.82158
H         -6.41779         3.44946         1.44302
O         -0.10224        10.60305        -1.47063
H         -0.20232         9.78795        -2.01499
O          4.86699         0.58122         2.33292
H          4.44982         1.18862         2.98935
O          8.68075        -7.87289        -0.34993
H          8.54015        -7.81234         0.61923
O          8.66092        -0.32694        -1.48054
O          1.41071        -3.99308         1.21763
H          1.59704        -3.17368         1.73344
O         -6.27882        -7.43428        -0.72380
H         -7.14526        -7.77588        -1.02627
O         -3.99358        -4.15317        -2.34056
H         -3.10274        -4.09471        -2.76571
O          6.31595        -4.84240        -2.58291
H          7.17909        -4.44663        -2.82506
O         -6.58143         4.91931        -2.69304
H         -5.72491         4.74265        -3.14127
O         10.23179        -1.71578         1.44031
H          9.86175        -0.94481         1.93660
O         -0.87108         8.01897        -1.58765
H         -0.85650         7.09278        -1.94223
O          5.17981        -7.43462        -2.44765
H          4.57976        -6.80105        -2.91160
O         -8.94344        -3.64312        -2.03906
H         -8.11348        -4.10928        -2.30994
H         12.09189        -0.99960        -0.86503
H         11.94139         1.36655        -0.80599
H         10.68928         3.60602        -0.39406
H          9.56818         5.74773         0.57267
H          8.29060         7.75755         0.47141
H          7.16516        10.04018         0.64090
H          5.08361        11.17525         0.01921
H          2.51272        11.10151        -0.35057
H          0.04766        11.14224         0.50352
H         -2.49424        10.39885        -1.27973
H         -5.13514        11.17700        -0.13718
H         -7.08796        10.09542        -1.03183
H         -8.36482         7.77437        -0.37828
H         -9.41640         5.72277         0.21926
H        -10.91780         3.50366        -0.55090
H        -12.17057         1.41078        -0.86851
H        -12.31353        -1.02200        -0.52485
H        -11.13449        -3.23798        -0.70681
H         -9.95750        -5.57317        -0.44271
H         -7.59641        -6.69992         2.34930
H         -7.14849        -9.50363         1.07269
H         -5.13963       -10.75187         1.41864
H         -2.62301       -10.84099         0.44339
H          0.07530       -10.68318         1.24313
H          2.47454       -11.05238         0.02444
H          4.91912       -11.11574        -0.32928
H          7.10408        -9.97206        -0.49816
H          7.57426        -7.53882        -2.06243
H          9.67032        -5.66267        -0.57434
H         10.91813        -3.50425        -0.67623
