         600
 CSIRO Nanostructure Databank - Neutral Graphene Oxide Data Set
C         22.95772        27.38612        -0.01839
C         22.96695        28.76239         0.10839
C         22.98494        31.69405         0.12778
C         22.98767        33.06840         0.22730
C         22.99207        35.97250         0.58542
C         23.00053        37.35391         0.64811
C         22.99954        40.28024         0.86017
C         23.00779        41.66043         0.86716
C         23.02121        44.58977         0.67905
C         23.03641        45.96722         0.72503
C         25.36457        24.55014        -0.34355
C         24.17626        25.24049        -0.24414
C         25.41208        27.35518        -0.06937
C         24.17047        26.65600        -0.11695
C         25.41156        28.77607         0.10210
C         24.18058        29.49191         0.16729
C         25.39090        31.64813         0.48025
C         24.18613        30.94730         0.26336
C         25.41979        33.07606         0.50986
C         24.19151        33.79263         0.41622
C         25.43225        35.93854         0.47940
C         24.19659        35.23335         0.50203
C         25.43096        37.36752         0.46527
C         24.20577        38.08718         0.58217
C         25.40048        40.26364         0.51951
C         24.19616        39.54545         0.65714
C         25.44076        41.68028         0.63690
C         24.21571        42.39555         0.75910
C         25.46215        44.53382         0.92345
C         24.22275        43.83993         0.77670
C         25.45964        45.94599         1.05618
C         24.25381        46.66938         0.94009
C         25.45441        48.81060         1.05685
C         24.26728        48.10266         0.98751
C         27.91999        23.11168        -0.70033
C         27.85241        24.49392        -0.54135
C         26.61885        25.22117        -0.33285
C         27.88572        27.36575        -0.09712
C         26.64143        26.63965        -0.17545
C         27.88377        28.77594         0.17144
C         26.65396        29.45693         0.26807
C         27.95327        31.60143         0.79329
C         26.62932        30.86754         0.67321
C         27.92563        33.10039         0.81047
C         26.65507        33.81081         0.59942
C         27.91969        35.94138         0.28382
C         26.67534        35.21598         0.47489
C         27.88554        37.37879         0.13853
C         26.66875        38.06382         0.26795
C         27.91545        40.28696         0.05713
C         26.61298        39.52747         0.11911
C         27.94285        41.69459         0.49938
C         26.70105        42.39865         0.70698
C         27.95221        44.49584         1.23569
C         26.69318        43.78418         0.96454
C         27.98811        45.98209         1.14514
C         26.70006        46.68569         1.49327
C         27.94549        48.85728         1.14127
C         26.70130        48.15837         1.17272
C         28.00096        50.28076         1.19252
C         30.38043        23.02896        -0.70251
C         29.14001        22.40304        -0.77830
C         30.41758        24.49503        -0.75378
C         29.09267        25.26896        -0.67187
C         30.34354        27.36769        -0.13028
C         29.11423        26.68619        -0.25178
C         30.36477        28.77266         0.02446
C         29.14002        29.49729         0.20872
C         30.39432        31.63310         0.17041
C         29.17944        30.89804         0.38851
C         30.41838        33.05017         0.16229
C         29.21897        33.83680         0.51514
C         30.36280        35.93911        -0.18418
C         29.14329        35.26303         0.16014
C         30.35524        37.38848        -0.25791
C         29.13456        38.09915        -0.04540
C         30.38525        40.22650         0.00342
C         29.16644        39.51263         0.04702
C         30.40466        41.66372         0.21356
C         29.18163        42.32984         0.57102
C         30.47118        44.48539         0.74333
C         29.25212        43.72864         1.01619
C         30.49135        45.94239         1.13518
C         29.16248        46.67257         1.01637
C         30.38371        48.86037         0.84444
C         29.18154        48.13840         1.01476
C         30.42213        50.27822         0.90418
C         29.19441        50.96366         1.11817
C         32.88663        20.22441        -0.58797
C         31.68751        20.90190        -0.61292
C         32.86568        23.03958        -0.53935
C         31.64185        22.32133        -0.60384
C         32.85613        24.48352        -0.40051
C         31.66027        25.18201        -0.39366
C         32.87525        27.35646        -0.20692
C         31.62011        26.59566         0.11451
C         32.84677        28.76915        -0.21425
C         31.61289        29.49108        -0.05509
C         32.83753        31.62787        -0.29001
C         31.61270        30.90596        -0.06483
C         32.82743        33.06202        -0.34913
C         31.60524        33.76726        -0.16135
C         32.79977        35.88743        -0.69861
C         31.55701        35.20080        -0.30844
C         32.80428        37.40462        -0.81013
C         31.55478        38.12355        -0.46978
C         32.79694        40.30240        -0.58683
C         31.57255        39.52344        -0.31286
C         32.84973        41.72978        -0.18594
C         31.61579        42.38827         0.15293
C         32.89064        44.54240         0.26514
C         31.62997        43.82178         0.37584
C         32.91098        45.95306         0.34317
C         31.61804        46.65969         0.43168
C         32.90204        48.86074         0.38732
C         31.60870        48.15304         0.41132
C         32.90604        50.27716         0.51633
C         31.67649        50.98838         0.72959
C         32.92757        53.08801         0.64351
C         31.73327        52.39743         0.78564
C         35.43799        18.78468        -0.57322
C         35.38363        20.20934        -0.55625
C         34.12779        20.91523        -0.55271
C         35.35100        23.06709        -0.47369
C         34.11243        22.34082        -0.51856
C         35.33448        24.50629        -0.41097
C         34.11160        25.20495        -0.32883
C         35.32438        27.36531        -0.42648
C         34.08962        26.64188        -0.32203
C         35.30305        28.77826        -0.48196
C         34.06881        29.49713        -0.39678
C         35.29269        31.64797        -0.87502
C         34.04322        30.91205        -0.46283
C         35.30968        33.09678        -0.46514
C         34.08248        33.78510        -0.43680
C         35.29295        35.93317        -0.41422
C         34.08807        35.20911        -0.47614
C         35.29202        37.38631        -0.43438
C         34.09921        38.08341        -0.62412
C         35.35326        40.25595        -0.46080
C         34.11064        39.54092        -0.72543
C         35.33876        41.74644        -0.66719
C         34.05912        42.41633        -0.20196
C         35.32748        44.55573        -0.00134
C         34.09557        43.83630         0.03278
C         35.33790        45.96975         0.10148
C         34.10727        46.68648         0.20922
C         35.35052        48.84367         0.20632
C         34.10499        48.13668         0.25572
C         35.36981        50.26641         0.25714
C         34.14443        50.98938         0.40868
C         35.40525        53.13297         0.30485
C         34.15617        52.41565         0.45663
C         35.45246        54.55033         0.29075
C         37.87970        18.80323        -0.64357
C         36.63258        18.10899        -0.61012
C         37.85298        20.23480        -0.61420
C         36.60615        20.93569        -0.55969
C         37.82655        23.09919        -0.51889
C         36.58614        22.37237        -0.51491
C         37.81814        24.52429        -0.49399
C         36.57600        25.23135        -0.44064
C         37.80202        27.38035        -0.49833
C         36.56450        26.65020        -0.44592
C         37.78185        28.78472        -0.50836
C         36.54980        29.50788        -0.50390
C         37.74250        31.65363        -0.14208
C         36.53869        30.90794        -0.50970
C         37.77689        33.11846        -0.20399
C         36.53523        33.80901        -0.33822
C         37.76493        35.94109        -0.13890
C         36.53293        35.23537        -0.28777
C         37.74772        37.37806        -0.06797
C         36.53165        38.09414        -0.22400
C         37.73595        40.26532         0.08007
C         36.52348        39.54538        -0.21585
C         37.76653        41.67844         0.08024
C         36.57746        42.42858        -0.15311
C         37.80943        44.54064         0.07727
C         36.57531        43.82638        -0.03617
C         37.81052        45.97519         0.09440
C         36.58349        46.69013         0.10147
C         37.81946        48.82547         0.12037
C         36.58164        48.11686         0.13112
C         37.83657        50.26201         0.10343
C         36.61554        50.97680         0.16998
C         37.85869        53.12415         0.00479
C         36.62506        52.41471         0.16248
C         37.87413        54.54885        -0.02051
C         36.64164        55.23382         0.13184
C         40.34098        15.98749        -0.90498
C         39.19511        16.65966        -0.65990
C         40.33989        18.83948        -0.84582
C         39.11992        18.10634        -0.73888
C         40.31680        20.26664        -0.73576
C         39.08069        20.96473        -0.63327
C         40.30022        23.11793        -0.59933
C         39.06582        22.39586        -0.57794
C         40.29801        24.54059        -0.56553
C         39.05593        25.25050        -0.52780
C         40.29594        27.39516        -0.52144
C         39.05076        26.66953        -0.53393
C         40.31086        28.80362        -0.51481
C         39.04211        29.55155        -0.79568
C         40.30020        31.69687        -0.22344
C         39.05053        30.91883        -0.16175
C         40.26588        33.09560        -0.07617
C         39.00046        33.80607        -0.09010
C         40.23945        35.94845         0.10914
C         38.99904        35.23952        -0.04210
C         40.21037        37.37636         0.25983
C         38.97711        38.05741         0.19895
C         40.24563        40.25801         0.62433
C         38.91273        39.49807         0.47653
C         40.23524        41.69443         0.36091
C         39.01797        42.39084         0.22871
C         40.27667        44.51040         0.02135
C         39.02697        43.81820         0.11665
C         40.29536        45.95893         0.01688
C         39.04801        46.68783         0.12908
C         40.29624        48.84679         0.28059
C         39.03756        48.09780         0.15736
C         40.31703        50.28142        -0.03111
C         39.08268        50.97517        -0.02390
C         40.31920        53.08531        -0.31006
C         39.08815        52.39823        -0.11872
C         40.32702        54.51691        -0.38267
C         39.12212        55.25324        -0.21313
C         40.36682        57.33840        -0.49066
C         39.18257        56.67650        -0.25637
C         42.85222        16.01628        -1.00229
C         41.57056        16.69760        -1.39110
C         42.80479        18.85650        -0.98801
C         41.57954        18.15860        -1.02191
C         42.78243        20.28628        -0.86832
C         41.54916        20.98784        -0.76161
C         42.77416        23.12665        -0.73825
C         41.54078        22.41188        -0.68280
C         42.77236        24.56363        -0.64606
C         41.54020        25.25780        -0.56638
C         42.75826        27.41143        -0.46925
C         41.53660        26.68675        -0.50338
C         42.75519        28.83712        -0.40583
C         41.51837        29.53852        -0.41389
C         42.74786        31.68731        -0.15945
C         41.51912        30.98073        -0.30694
C         42.73480        33.11368         0.00260
C         41.50243        33.81793         0.01164
C         42.72002        35.96384         0.26031
C         41.47961        35.24980         0.13049
C         42.70580        37.38597         0.37406
C         41.46529        38.09615         0.39672
C         42.72293        40.22739         0.47204
C         41.49186        39.50457         0.46313
C         42.71500        41.66420         0.36622
C         41.48640        42.36757         0.24180
C         42.74119        44.43165        -0.29380
C         41.47124        43.77430         0.00609
C         42.74339        45.94729        -0.39346
C         41.50504        46.64153        -0.07788
C         42.80549        48.80717        -0.28211
C         41.60192        48.08241         0.16695
C         42.78828        50.20955        -0.42572
C         41.54630        50.94245        -0.27498
C         42.76217        53.03540        -0.75661
C         41.54317        52.35855        -0.44406
C         42.75930        54.46182        -0.88483
C         41.55573        55.19749        -0.64500
C         42.79293        57.28311        -1.01659
C         41.57378        56.61831        -0.71395
C         44.00961        16.70653        -0.87835
C         45.30000        18.86971        -1.00398
C         44.06886        18.15340        -0.98062
C         45.24357        20.29867        -1.14603
C         44.00284        21.01077        -0.95544
C         45.23738        23.20161        -1.20529
C         43.98745        22.42346        -0.90275
C         45.25352        24.60268        -0.69848
C         44.00889        25.29182        -0.60373
C         45.23745        27.42161        -0.46913
C         44.00045        26.70448        -0.48811
C         45.24469        28.84538        -0.39904
C         43.98432        29.56614        -0.32928
C         45.26538        31.64470         0.18528
C         43.97002        30.95924        -0.16697
C         45.21540        33.15047         0.10570
C         43.98409        33.83443         0.13013
C         45.19430        35.97431         0.45860
C         43.96253        35.26166         0.26800
C         45.16449        37.37369         0.63185
C         43.93935        38.10334         0.53831
C         45.16992        40.28158         1.05880
C         43.93949        39.52317         0.60316
C         45.20057        41.72568         0.65281
C         43.96553        42.39510         0.37398
C         45.17157        44.59024         0.46514
C         43.98648        43.75737         0.06409
C         45.21707        45.98042        -0.11777
C         44.02546        46.67091        -0.27932
C         45.23598        48.76271        -0.71774
C         44.01247        48.08655        -0.45333
C         45.22303        50.16163        -0.99677
C         43.99272        50.88415        -0.81306
C         45.13025        52.96041        -1.48057
C         43.96610        52.30141        -0.97248
C         45.09503        54.37458        -1.69896
C         43.93989        55.14370        -1.27941
C         43.93278        56.56548        -1.31205
C         47.78563        18.67195        -0.37769
C         46.53472        18.17770        -0.64750
C         48.21261        20.00758        -0.72655
C         46.40916        21.08817        -1.32607
C         47.74320        23.10680        -0.68907
C         46.50960        22.43477        -0.95945
C         47.72469        24.50465        -0.60346
C         46.48694        25.26422        -0.61111
C         47.67549        27.44472        -0.49825
C         46.47092        26.71019        -0.51242
C         47.68224        28.85064        -0.49748
C         46.46574        29.55009        -0.46175
C         47.73275        31.73744        -0.19783
C         46.43972        31.05856        -0.59786
C         47.70276        33.14325         0.07447
C         46.45121        33.85013         0.17920
C         47.69590        35.93854         0.51286
C         46.45478        35.26006         0.40179
C         47.72613        37.36278         0.87542
C         46.41029        38.10467         0.93626
C         47.67070        40.24708         0.74480
C         46.45959        39.56336         0.78421
C         47.65603        41.68518         0.74136
C         46.43899        42.41562         0.64448
C         47.65292        44.57643         0.34716
C         46.47524        43.85092         0.42738
C         47.68332        45.96970        -0.04815
C         46.45675        46.66460        -0.26870
C         47.68628        48.71478        -0.93497
C         46.45930        48.03789        -0.66633
C         47.65644        50.04492        -1.47881
C         46.41358        50.78499        -1.49782
C         47.14896        52.83638        -2.78056
C         46.26734        52.18436        -1.89334
C         47.12048        54.21494        -3.02043
C         46.13884        54.99230        -2.42000
C         49.97610        20.37986         0.88681
C         49.04914        20.90035        -0.09144
C         50.09944        23.18774         0.26726
C         49.10902        22.36787        -0.56078
C         50.15528        24.54738         0.10181
C         49.04558        25.24734        -0.65531
C         50.15093        27.44751         0.10023
C         48.90886        26.68438        -0.19807
C         50.19177        28.89750        -0.10512
C         48.98336        29.60414        -0.67010
C         50.17959        31.73413        -0.03444
C         48.93483        31.05039        -0.23805
C         50.17659        33.14754         0.12278
C         48.93163        33.84863         0.17977
C         50.17580        35.98909         0.40720
C         48.92839        35.26571         0.36302
C         50.18460        37.41566         0.50881
C         48.96558        38.13489         0.67520
C         50.19644        40.25758         0.70683
C         48.95034        39.53951         0.71170
C         50.19534        41.70617         0.79476
C         48.90900        42.40131         0.92303
C         50.18967        44.59152         0.42573
C         48.92077        43.93894         0.72951
C         50.16937        45.96540         0.04065
C         48.91336        46.65164        -0.20905
C         50.15889        48.68667        -0.82602
C         48.91653        48.01341        -0.66789
C         50.17221        49.98700        -1.42254
C         48.95036        50.58757        -1.88037
C         50.32514        52.26330        -3.07453
C         49.10056        51.65378        -2.79488
C         51.00309        21.09924         1.39326
C         52.44119        23.29000         1.35394
C         51.10204        22.54466         1.14456
C         52.56143        24.63622         0.77722
C         51.35826        25.31231         0.41109
C         52.62745        27.42350         0.30368
C         51.41031        26.70189         0.21099
C         52.63507        28.84692         0.22970
C         51.39348        29.57041         0.02598
C         52.63927        31.71405         0.15591
C         51.41490        31.02092         0.00520
C         52.64286        33.14269         0.20712
C         51.41258        33.85581         0.21474
C         52.64417        36.00736         0.30021
C         51.40620        35.28755         0.31548
C         52.63735        37.41495         0.32743
C         51.41807        38.13057         0.45056
C         52.68208        40.26634         0.74156
C         51.42049        39.55936         0.59729
C         52.58964        41.67900         1.30998
C         51.37288        42.43762         0.83337
C         52.64733        44.55274         0.48793
C         51.40685        43.87325         0.63145
C         52.64551        45.96406         0.16145
C         51.39067        46.66742        -0.04440
C         52.61093        48.74660        -0.57550
C         51.39253        48.04087        -0.46867
C         52.64982        50.04257        -1.14599
C         51.42653        50.63166        -1.66443
C         51.47853        51.78893        -2.46143
C         54.89236        23.19669         1.50899
C         53.69254        22.58506         1.66518
C         55.02318        24.57354         1.06429
C         53.80227        25.28924         0.72703
C         55.07345        27.40504         0.47095
C         53.85063        26.70105         0.46320
C         55.09162        28.81635         0.42934
C         53.86121        29.54940         0.31621
C         55.10284        31.68323         0.38027
C         53.87792        30.98485         0.27329
C         55.11707        33.12177         0.36677
C         53.88785        33.85431         0.28532
C         55.13347        35.98217         0.35132
C         53.89458        35.27330         0.28725
C         55.15584        37.41388         0.35308
C         53.89815        38.18892         0.05170
C         55.16123        40.24305         0.80621
C         53.88742        39.59348         0.62262
C         55.19303        41.68397         1.16004
C         53.90245        42.47102         1.25197
C         55.10568        44.54527         0.50289
C         53.91405        43.89017         0.76900
C         55.10494        45.87077        -0.23381
C         53.84987        46.65127         0.01497
C         55.13893        48.77056        -0.47143
C         53.85944        48.15409         0.03394
C         55.10064        50.05736        -0.99074
C         53.88965        50.70550        -1.27670
C         57.49877        24.57145         1.30256
C         56.25456        25.22151         0.98777
C         57.55504        27.39381         0.84079
C         56.34782        26.61259         0.38779
C         57.55947        28.81112         0.77239
C         56.33286        29.53967         0.54271
C         57.57435        31.67057         0.66153
C         56.33415        30.95144         0.52693
C         57.58350        33.09780         0.59630
C         56.34698        33.82432         0.46291
C         57.59863        35.96384         0.50480
C         56.35649        35.25340         0.44988
C         57.60692        37.39040         0.47653
C         56.36229        38.11189         0.44821
C         57.63691        40.26208         0.51809
C         56.36375        39.56053         0.59226
C         57.68199        41.67902         0.53470
C         56.47940        42.42202         0.94348
C         57.65241        44.56054         0.17810
C         56.42649        43.91363         0.69168
C         57.62375        45.96806        -0.04766
C         56.38575        46.66600        -0.10375
C         57.63278        48.75724        -0.36547
C         56.38535        48.05892        -0.29345
C         58.68088        25.25479         1.34297
C         59.92519        27.40895         1.41081
C         58.72659        26.69293         1.17734
C         59.95105        28.78559         1.29350
C         58.77753        29.51698         0.98208
C         59.99787        31.69175         0.95943
C         58.78956        30.96109         0.86828
C         60.01146        33.06787         0.85249
C         58.81441        33.80189         0.67729
C         60.03743        35.97338         0.59148
C         58.82919        35.24811         0.58863
C         60.04441        37.35741         0.50397
C         58.84311        38.08953         0.44637
C         60.04172        40.25678         0.11934
C         58.84720        39.54101         0.35413
C         60.05216        41.63859         0.04059
C         58.87444        42.38778         0.26449
C         60.07125        44.57049        -0.09004
C         58.86286        43.84807         0.13594
C         60.07239        45.94166        -0.22079
C         58.85540        46.67117        -0.20764
C         58.83027        48.08617        -0.34104
O         31.29613        47.34505        -0.81275
O         54.65473        42.11627         2.45920
O         32.71570        36.56345        -2.01057
O         48.87525        43.33293         2.05817
O         27.29156        31.05747         1.98246
O         39.45409        39.86190         1.79376
O         51.39535        23.26067         2.38869
O         48.01529        52.07542        -3.57274
O         47.55249        20.49053        -1.87473
O         29.77747        25.06966        -1.95930
O         41.08851        48.50783         1.47774
O         28.74768        33.62024         1.90578
O         47.07295        37.63278         2.17728
O         33.36071        40.05204        -1.92501
O         38.35911        31.06405         1.10094
O         49.23126        26.95290         1.20304
O         28.71842        43.96749         2.38585
O         27.13122        40.03724        -1.17025
O         56.71276        43.36912         2.03070
O         42.72854        45.11665        -1.61313
O         44.92296        44.83868         1.91233
H         45.13204        44.00859         2.39470
O         45.06305        40.29154         2.54322
H         45.39915        39.42777         2.87000
O         49.65246        22.37262        -1.92437
H         49.07455        21.76714        -2.44624
O         53.80757        48.53001         1.47529
H         53.73775        49.50800         1.51364
O         56.56319        26.38689        -1.06332
H         57.40043        25.88235        -1.14920
O         30.80961        45.96550         2.56389
H         30.17541        45.34335         2.99441
O         53.91436        38.39384        -1.41946
H         53.94579        37.50481        -1.83353
O         55.06518        45.49810        -1.67744
H         54.18347        45.10292        -1.85056
O         35.26466        31.67704        -2.36211
H         34.45028        32.15640        -2.62708
O         49.42725        25.28209        -2.06344
H         49.61336        24.34592        -2.32340
O         49.18868        29.64074        -2.13610
H         50.06062        30.06079        -2.29934
O         41.51714        16.63845        -2.87017
H         42.29367        17.13684        -3.20362
O         45.53504        31.32220         1.58578
H         44.80505        31.68695         2.12861
O         31.63188        26.43959         1.59753
H         31.71000        27.33931         1.98267
O         39.04468        29.81927        -2.24400
H         39.03122        28.95611        -2.70915
O         35.36776        41.93964        -2.13177
H         34.62325        41.39472        -2.49039
O         45.21462        23.36177        -2.69517
H         45.96553        23.94913        -2.93037
O         46.23125        31.35241        -2.00441
H         46.95389        30.91630        -2.50588
O         26.64974        46.62560         2.97841
H         27.43133        47.11506         3.31412
O         52.27575        41.45153         2.72020
H         53.13852        41.45654         3.20199
H         22.00232        26.84289        -0.04742
H         22.00586        29.28788         0.18283
H         22.03292        31.18143        -0.06030
H         22.03497        33.60363         0.12284
H         22.02635        35.45232         0.62607
H         22.03948        37.87734         0.73215
H         22.04130        39.76019         0.98732
H         22.05474        42.18978         0.99757
H         22.06256        44.07351         0.53649
H         22.10087        46.53526         0.62071
H         25.33409        23.45763        -0.44952
H         23.21903        24.70013        -0.26494
H         25.41605        49.90543         0.96627
H         23.31453        48.64142         0.88491
H         26.99716        22.51563        -0.69181
H         27.07446        50.85486         1.32637
H         29.08098        21.30701        -0.82727
H         29.17601        52.05886         1.19134
H         32.86623        19.12714        -0.60589
H         30.75416        20.32469        -0.65095
H         32.89992        54.18453         0.69139
H         30.81639        52.98054         0.94218
H         34.50869        18.20047        -0.56219
H         34.52807        55.13258         0.40012
H         36.61667        17.01153        -0.63638
H         36.61594        56.33145         0.12273
H         40.36999        14.89024        -0.82751
H         38.30051        16.09636        -0.35850
H         40.38642        58.43725        -0.52721
H         38.26951        57.26791        -0.10683
H         42.85863        14.91775        -0.93765
H         42.81133        58.38225        -1.04169
H         44.93160        16.13790        -0.69524
H         44.85175        57.11216        -1.56314
H         48.49921        18.00201         0.12717
H         46.40651        17.12219        -0.36732
H         47.85418        54.66085        -3.70399
H         46.12290        56.07313        -2.60973
H         49.88446        19.31443         1.14595
H         50.36604        53.09301        -3.79141
H         51.69906        20.64404         2.11051
H         52.43426        52.28090        -2.67952
H         55.80188        22.63321         1.75955
H         53.64529        21.55734         2.05225
H         56.03154        50.57422        -1.26206
H         53.93641        51.72070        -1.69002
H         57.50371        23.49776         1.53783
H         57.63727        49.85173        -0.45551
H         59.61406        24.72884         1.59103
H         60.83855        26.85912         1.67949
H         60.89927        29.31012         1.46925
H         60.95179        31.16896         1.10550
H         60.97555        33.58751         0.92275
H         61.00083        35.45114         0.65061
H         61.01142        37.87685         0.50155
H         60.98477        39.71740        -0.03841
H         61.00046        42.14309        -0.18431
H         61.03149        44.03912        -0.11497
H         61.02055        46.48403        -0.34613
H         59.77867        48.63556        -0.42825
