         252
 CSIRO Nanostructure Databank - Neutral Graphene Oxide Data Set
C         30.33966        31.75839        -0.21137
C         30.38189        32.92218        -0.65280
C         30.48894        36.06934        -1.54125
C         30.41770        37.29860        -1.68656
C         30.51008        40.44633        -0.98819
C         30.24967        41.63186        -0.60810
C         32.75276        29.23089         1.03690
C         31.60687        29.71309         0.76684
C         32.73017        31.71379         0.05725
C         31.46977        30.98666         0.20739
C         32.72310        33.08182        -0.40129
C         31.48979        33.81999        -0.75735
C         32.73735        35.96479        -0.94746
C         31.50409        35.14631        -1.14742
C         32.83480        37.41187        -1.28989
C         31.62926        38.22190        -1.79723
C         32.68304        40.02405        -0.16249
C         31.52188        39.51135        -1.04669
C         32.69201        41.57858        -0.13439
C         31.27997        42.18676         0.37553
C         32.66967        44.12214         0.74513
C         31.57357        43.68188         0.36076
C         35.41669        27.84146         2.01646
C         35.32646        28.99430         1.02144
C         34.03147        29.75128         0.94536
C         35.23957        31.76539         0.14758
C         33.98954        31.09477         0.42039
C         35.18754        33.02246        -0.45724
C         33.95688        33.72855        -0.58591
C         35.34764        35.90920        -0.66347
C         34.00008        35.20386        -0.66076
C         35.30371        37.38621        -0.99190
C         34.01435        38.07971        -1.02484
C         35.20648        40.13292        -0.39582
C         34.02509        39.49278        -0.66397
C         35.22728        41.36622         0.43133
C         33.91907        42.10082         0.63243
C         35.16266        44.21550         1.14688
C         33.98702        43.57599         0.90391
C         35.38980        45.62388         1.22839
C         37.87849        27.88523         2.27120
C         36.53680        27.40047         2.32461
C         37.83942        29.29662         1.79725
C         36.50757        29.90931         1.38786
C         37.86937        31.87998         0.47434
C         36.52324        31.27679         0.78609
C         38.04535        33.24990         0.42648
C         36.33651        33.59223        -1.21851
C         37.78484        35.84204        -1.37617
C         36.47266        35.10026        -1.29904
C         37.71932        37.39533        -1.59642
C         36.47420        38.08394        -1.05579
C         37.77312        40.03250        -0.13467
C         36.50394        39.60655        -0.99006
C         37.81483        41.51026         0.19280
C         36.53755        42.06903         0.72603
C         37.78479        44.30888         1.13343
C         36.49814        43.50617         1.19172
C         37.76219        45.83616         1.14008
C         36.37905        46.33936         1.00132
C         40.30042        25.12609         2.72126
C         39.28245        25.84232         2.73272
C         40.34822        27.77783         1.87862
C         39.07082        27.19790         2.34182
C         40.33871        29.01547         1.26061
C         39.12611        29.84765         1.21221
C         40.35565        31.68980         0.06815
C         39.03471        30.94605         0.15252
C         40.33768        33.05304        -0.59459
C         39.11101        33.91320        -0.33479
C         40.33890        35.85659        -1.30831
C         39.05260        35.14708        -0.97225
C         40.32443        37.37864        -1.49898
C         39.03529        38.14422        -1.35071
C         40.36461        40.22100        -0.52108
C         39.06031        39.53868        -0.79282
C         40.29101        41.58655        -0.11495
C         39.00071        42.22119         0.23204
C         40.18744        44.37268         0.63699
C         39.02232        43.63466         0.63386
C         40.21401        45.79514         0.96482
C         38.94793        46.56613         0.55147
C         40.04675        48.35158         1.75156
C         39.10621        47.97964         1.03329
C         42.88964        25.06410         2.47723
C         41.60648        25.62938         2.40770
C         42.83873        27.68952         1.73622
C         41.60729        27.01267         1.97678
C         42.83541        29.18236         1.41523
C         41.58899        29.53759         0.58360
C         42.82374        31.64956         0.00200
C         41.54234        31.02760         0.27255
C         42.83933        33.04824        -0.56101
C         41.58220        33.82919        -0.29754
C         42.74640        36.06597        -0.31596
C         41.60810        35.19787        -0.84340
C         42.82486        37.36888        -1.05818
C         41.59930        38.17093        -1.37573
C         42.77102        40.44120        -0.92793
C         41.57685        39.63834        -0.96862
C         42.71679        41.75869        -0.41873
C         41.48574        42.33194        -0.04835
C         42.70624        44.34448         0.85146
C         41.48008        43.81461         0.14645
C         42.50835        45.44147         1.88821
C         41.30777        46.35322         1.58907
C         42.40844        48.19214         2.79488
C         41.30862        47.76576         2.06709
C         43.95455        25.72646         2.31332
C         45.33078        27.91330         1.98915
C         44.09097        27.07083         1.94117
C         45.30021        29.00954         0.90949
C         44.10609        29.66069         0.71498
C         45.27601        31.64871        -0.32124
C         44.03518        30.96555         0.07290
C         45.32496        33.01847        -0.44781
C         44.09457        33.80543        -0.19622
C         45.36518        35.96740        -0.72205
C         44.09999        35.29890        -0.29505
C         45.32545        37.29758        -1.07696
C         44.03493        37.82452        -1.43985
C         45.29374        40.36744        -0.79965
C         44.08198        39.97352        -1.35732
C         45.29772        41.78432        -0.36413
C         43.97091        42.54293        -0.27652
C         45.19574        44.48968         0.83094
C         43.91023        43.78229         0.55676
C         45.11658        45.80448         1.61704
C         43.82275        46.25989         2.14506
C         43.46672        47.42895         2.68762
C         47.61757        27.63023         1.21799
C         46.64168        27.17968         1.82862
C         47.85473        28.81411         0.45448
C         46.51816        29.41631         0.16427
C         47.79309        31.53023        -0.59342
C         46.51428        30.85243        -0.48617
C         47.83239        32.94322        -0.94476
C         46.54036        33.73923        -0.85319
C         47.80245        35.87763        -0.97650
C         46.60672        35.22574        -0.77393
C         47.83025        37.32982        -1.28514
C         46.53946        38.13520        -1.31480
C         47.70390        40.12017        -0.27765
C         46.54430        39.59316        -0.84791
C         47.69102        41.38391         0.53361
C         46.45867        42.26278         0.44798
C         47.80422        44.34163         1.21325
C         46.51097        43.75067         0.67762
C         47.51013        45.55937         1.97750
C         46.42437        46.09390         2.21068
C         50.35363        28.86516         0.15778
C         49.04579        29.41567         0.10285
C         50.19113        31.45725        -1.12952
C         49.10666        30.93133        -0.16400
C         50.29800        32.97541        -1.03933
C         49.12594        33.67440        -0.92241
C         50.35394        35.88925        -1.00635
C         49.09340        35.15724        -0.60367
C         50.36132        37.28103        -0.95368
C         49.10685        38.07121        -1.05864
C         50.28008        39.86234         0.28255
C         49.03265        39.48169        -0.51504
C         50.32781        41.30824         0.80482
C         48.99779        41.99136         1.06636
C         50.33790        44.03787         1.37015
C         48.99013        43.47912         1.46774
C         51.44592        29.47637        -0.07222
C         52.70037        31.63922        -0.88517
C         51.79454        30.67417        -0.63395
C         52.73574        32.88923        -1.19277
C         51.57641        33.70383        -1.12064
C         52.68295        35.98995        -1.29590
C         51.56880        35.11252        -1.16010
C         52.71264        37.23852        -1.25688
C         51.58798        38.06739        -0.94670
C         52.57929        40.32650        -0.37017
C         51.54941        39.38443        -0.51677
C         52.72227        41.51943        -0.01934
C         51.69064        42.13450         0.82185
C         51.41271        43.55244         1.01115
O         45.19158        45.80895         0.17780
O         36.18558        31.05094         2.22492
O         34.41695        41.22755         1.67483
O         44.85582        42.67407        -1.43182
O         38.01613        45.11957         2.35092
O         51.26145        41.36851         1.94703
O         33.20108        35.76406         0.45239
O         44.20505        34.60653         1.01812
O         46.32554        29.61798        -1.25777
O         49.28542        39.23900        -1.92725
O         41.59225        44.31559        -1.30956
O         36.96368        32.86945        -1.98036
O         37.08537        35.34174        -2.58227
O         41.24647        35.24692        -2.29555
O         46.66898        41.40351         1.60113
O         44.08467        38.93937        -2.28045
O         39.00936        39.32166        -2.22981
O         41.04370        37.82805        -2.68788
O         47.04283        33.27387        -2.15755
O         48.86456        42.45682         2.45725
O         47.20630        37.74310        -2.54778
O         38.65883        30.23247         2.54498
O         47.47347        44.45170        -0.18283
O         36.60583        42.42521         2.15796
O         32.45293        39.49072         1.14440
H         33.10062        39.91045         1.76187
O         32.85721        41.99406        -1.49682
H         32.61728        42.94320        -1.57096
O         35.60513        28.47351        -0.27861
H         34.87127        27.88395        -0.55063
O         49.07584        35.20216         0.87054
H         49.90121        34.78367         1.19801
O         41.62967        45.74929        -1.28282
H         40.70227        46.01549        -1.52393
O         42.97555        32.88559        -2.01152
H         42.11178        32.52878        -2.33818
O         41.71895        28.86084        -0.68952
H         40.92322        29.07775        -1.22461
O         49.45105        31.52788         1.12639
H         48.89432        31.12142         1.82338
O         37.68711        39.32010         1.12672
H         37.13407        39.83483         1.75305
O         50.24201        39.01940         1.45128
H         50.80162        39.44222         2.14316
O         42.74866        29.89640         2.66666
H         43.56511        29.69133         3.17950
O         36.57948        40.17367        -2.30592
H         37.07996        39.54047        -2.87950
O         31.86930        38.50315        -3.17810
H         31.18863        39.13116        -3.49838
O         40.27671        32.72434        -2.04375
H         40.38887        33.58860        -2.52135
O         38.85243        30.27597        -1.12246
H         38.83557        30.97577        -1.81585
O         35.72908        35.94400         0.74769
H         34.92033        36.20582         1.24745
O         37.50294        37.59187        -3.02959
H         38.32112        37.33650        -3.50846
O         31.00413        41.76598         1.66278
H         30.10306        42.04219         1.92519
O         42.38354        36.38187         1.05117
H         42.78234        35.67933         1.61944
O         38.85751        46.51558        -0.88038
H         38.12695        47.10245        -1.16974
O         37.21588        34.05688         1.12921
H         36.63282        33.52018         1.70583
O         49.97799        31.01380        -2.41771
H         50.45844        31.57167        -3.06193
O         42.21288        44.73187         3.11078
H         41.91146        45.37602         3.78634
O         45.33732        28.60141         3.25833
H         45.33580        27.92786         3.97172
