         598
 CSIRO Nanostructure Databank - Neutral Graphene Oxide Data Set
C         23.61263        70.08761        -2.22851
C         23.66147        71.52310        -2.35452
C         22.64750        72.25232        -3.02138
C         23.86702        74.33096        -2.68225
C         22.76081        73.63758        -3.17109
C         25.56963        65.82177        -0.67506
C         25.53591        67.23163        -0.69083
C         24.54992        67.95736        -1.42136
C         25.48026        70.15461        -0.57964
C         24.54239        69.36335        -1.47420
C         25.86995        71.46801        -1.22888
C         24.78985        72.23384        -1.86921
C         26.04398        74.33726        -1.46946
C         24.91700        73.63925        -2.02134
C         27.91471        61.51154        -0.33166
C         27.90690        62.89827        -0.05811
C         26.70987        63.65700        -0.10953
C         27.50994        65.85557         0.76518
C         26.59715        65.09045        -0.00861
C         27.59717        67.27555         0.68064
C         26.60358        67.97470        -0.05749
C         27.84903        70.05706         0.30976
C         26.69103        69.38633        -0.11098
C         27.83569        71.56013         0.42205
C         27.05431        72.20248        -0.70450
C         28.15382        74.33717        -0.15766
C         27.07804        73.68276        -0.78373
C         30.30446        57.18699        -0.81320
C         30.33212        58.60267        -0.72260
C         29.12746        59.35156        -0.58495
C         30.37866        61.44800        -0.61784
C         29.13045        60.75915        -0.49396
C         30.37042        62.95698        -0.69012
C         29.21567        63.53826         0.09879
C         30.54853        65.55076         0.62401
C         29.39625        64.68988         0.80334
C         30.58865        66.86879         1.03210
C         28.72159        68.00993         1.16135
C         30.31419        69.98131         0.91649
C         28.98521        69.33939         0.80256
C         30.35097        71.42783         0.84993
C         29.19679        72.18580         0.55441
C         30.44318        74.27260         0.76837
C         29.25524        73.60687         0.40305
C         32.87135        52.83278        -1.10003
C         32.81116        54.27295        -1.02190
C         31.59842        54.94083        -0.87797
C         32.84036        57.14976        -0.62761
C         31.51032        56.38250        -0.62796
C         32.82408        58.57739        -1.06274
C         31.57035        59.32872        -0.85066
C         32.83647        61.50224        -1.05123
C         31.57084        60.73805        -0.84352
C         32.87325        62.88626        -0.52914
C         31.70625        63.56315        -0.30485
C         32.90256        65.70105         0.03329
C         31.73159        64.96179         0.06173
C         32.88477        67.16203         0.07939
C         31.56893        67.82630         0.53700
C         32.81217        69.96233         0.84685
C         31.54245        69.27956         0.87491
C         32.82560        71.38143         1.01658
C         31.60126        72.10496         0.99553
C         32.82135        74.20680         1.38030
C         31.61570        73.54394         1.06568
C         35.31330        48.54387        -1.04972
C         35.29113        49.93647        -1.28172
C         34.10555        50.68722        -1.17122
C         35.28986        52.84643        -1.62969
C         34.04795        52.10509        -1.28389
C         35.30499        54.33126        -1.45828
C         34.05999        55.03369        -1.05083
C         35.33990        57.14464        -0.70572
C         34.07297        56.39623        -0.91713
C         35.40227        58.60246        -0.85008
C         34.15587        59.29889        -1.23752
C         35.42700        61.49724        -0.89245
C         34.15599        60.79848        -1.22673
C         35.45055        62.84358        -0.60608
C         34.17578        63.51945        -0.25553
C         35.39763        65.81492        -0.25805
C         34.17805        65.00430        -0.00110
C         35.37596        67.23274         0.16530
C         34.14593        67.89628         0.31047
C         35.31755        69.97888         0.79782
C         34.07815        69.27620         0.66932
C         35.28596        71.38935         1.02026
C         34.07107        72.08916         1.11302
C         35.23198        74.19377         1.75940
C         34.05529        73.51575         1.41091
C         37.71680        44.21186        -0.73812
C         37.68086        45.58952        -0.91492
C         36.48655        46.37873        -0.95141
C         37.74308        48.46730        -1.63246
C         36.49564        47.76674        -1.12031
C         37.83668        49.91067        -1.18604
C         36.58518        50.63472        -1.51915
C         37.80130        52.80234        -1.02065
C         36.60887        52.11525        -1.64250
C         37.92564        54.28157        -1.15828
C         36.63576        55.02920        -1.31221
C         37.91941        57.14145        -0.72684
C         36.64381        56.40639        -0.76524
C         37.85602        58.51918        -0.54983
C         36.61851        59.24933        -0.72631
C         37.94303        61.46742        -0.54158
C         36.68611        60.72627        -0.91367
C         37.89712        62.91337        -0.25439
C         36.68430        63.57126        -0.35694
C         37.91136        65.76186         0.09707
C         36.69022        65.05136        -0.31604
C         37.85734        67.15559         0.28234
C         36.62368        67.90249         0.33225
C         37.80383        70.00613         0.90782
C         36.58878        69.30277         0.64853
C         37.80671        71.37726         1.23681
C         36.55594        72.12907         1.04503
C         37.77411        74.16770         2.01498
C         36.53249        73.62018         1.47929
C         40.18439        39.99304         0.15574
C         40.14157        41.30552        -0.35407
C         38.95294        42.05059        -0.48153
C         40.18931        44.14508        -0.76589
C         38.95353        43.46413        -0.68723
C         40.25426        45.59577        -0.64048
C         38.95398        46.33864        -0.82910
C         40.32578        48.46095        -1.12241
C         39.04702        47.72381        -1.37811
C         40.29934        49.90787        -0.85981
C         39.01909        50.56236        -0.87075
C         40.23848        52.73089        -0.04154
C         38.97063        52.01460        -0.52546
C         40.29741        54.22616        -0.35963
C         39.14088        54.96931        -0.64093
C         40.35668        57.08396        -0.24491
C         39.14288        56.39488        -0.57358
C         40.35513        58.50056        -0.06567
C         39.06785        59.21387        -0.07180
C         40.36769        61.42441         0.14759
C         39.08741        60.70908         0.03356
C         40.34697        62.84620         0.22520
C         39.12547        63.59801         0.08178
C         40.34982        65.69453         0.59039
C         39.12350        65.01137         0.25115
C         40.36386        67.10215         0.73540
C         39.14252        67.86346         0.42362
C         40.29621        69.95960         1.39893
C         39.11692        69.35463         0.74803
C         40.19628        71.28237         1.82368
C         38.98987        72.03282         1.64898
C         40.19886        74.11039         2.28612
C         38.95692        73.44868         2.00084
C         42.65435        35.97061         1.69496
C         42.65887        37.27933         1.10619
C         41.43816        38.00324         0.90626
C         42.66181        40.01126         0.15326
C         41.41492        39.31647         0.38809
C         42.69229        41.28337        -0.41142
C         41.41507        41.91287        -0.78646
C         42.72524        44.14651        -0.92064
C         41.43491        43.43442        -1.01281
C         42.74842        45.54871        -0.93104
C         41.53520        46.30925        -0.85209
C         42.79813        48.42685        -0.79833
C         41.55817        47.69556        -0.83064
C         42.75913        49.83730        -0.64008
C         41.52237        50.58133        -0.59260
C         42.70603        52.71786        -0.02477
C         41.53431        52.00662        -0.34082
C         42.70596        54.13341         0.15995
C         41.52785        54.90034        -0.08837
C         42.76803        57.06330         0.20099
C         41.55918        56.34444        -0.04986
C         42.77689        58.49131         0.25514
C         41.54447        59.21957         0.16446
C         42.78841        61.36608         0.47095
C         41.55580        60.67170         0.27762
C         42.78737        62.78893         0.60777
C         41.56892        63.52903         0.51603
C         42.77725        65.63191         1.00152
C         41.56111        64.94445         0.71808
C         42.75551        67.04508         1.18002
C         41.55991        67.79670         1.08137
C         42.68852        69.82573         1.99198
C         41.54240        69.21126         1.46855
C         42.63309        71.18330         2.58648
C         41.28580        71.91030         2.65987
C         42.62176        74.09060         2.43126
C         41.38634        73.40864         2.43200
C         45.06313        33.67974         3.41874
C         43.85490        34.20560         2.95351
C         45.13181        35.82046         1.58879
C         43.83327        35.32755         2.08261
C         45.14875        37.20964         0.90689
C         43.88269        37.92409         0.84569
C         45.17225        39.86828        -0.04167
C         43.93050        39.41683         0.70050
C         45.18869        41.26333        -0.59131
C         43.91614        42.00982        -0.61946
C         45.20019        44.08942        -1.07259
C         43.94173        43.39418        -0.86879
C         45.19072        45.46572        -1.26422
C         43.99492        46.25375        -1.05919
C         45.32383        48.32187        -0.79077
C         44.00646        47.66023        -0.92876
C         45.28683        49.78040        -0.30494
C         44.04770        50.62590        -0.62135
C         45.16920        52.61182         0.74959
C         43.94707        51.91775         0.20768
C         45.15154        54.09627         1.04312
C         43.90452        54.86604         0.65870
C         45.19231        57.02809         0.50157
C         43.98804        56.33923         0.42778
C         45.23354        58.47414         0.50117
C         44.00408        59.20269         0.44100
C         45.24993        61.33189         0.70097
C         44.01712        60.62964         0.54380
C         45.26069        62.75728         0.83410
C         44.01776        63.49033         0.82975
C         45.24704        65.57823         1.31275
C         44.00973        64.89039         1.03150
C         45.22512        66.93995         1.60398
C         44.02771        67.75139         1.36704
C         45.26646        69.85426         2.36272
C         44.01881        69.22683         1.79726
C         45.24310        71.29464         2.50936
C         43.92631        71.97115         2.64537
C         45.04407        74.16474         2.18911
C         43.87139        73.44680         2.46696
C         46.29914        34.24975         3.09587
C         47.58450        36.03005         1.95672
C         46.38546        35.36191         2.21870
C         47.63547        37.30548         1.29982
C         46.42592        37.95010         0.88590
C         47.66373        39.96762         0.22966
C         46.45018        39.25985         0.39230
C         47.67878        41.32859        -0.25554
C         46.47049        41.99379        -0.61710
C         47.71728        44.04821        -1.03623
C         46.47183        43.36253        -0.95353
C         47.74929        45.42749        -1.56408
C         46.40593        46.14268        -1.85164
C         47.78582        48.24952        -1.58642
C         46.51323        47.55263        -1.30170
C         47.78555        50.26288        -0.72634
C         46.52453        50.58476        -0.03965
C         47.82819        52.61313         0.83507
C         46.50855        51.94830         0.59583
C         47.83472        54.07937         1.29654
C         46.47657        54.83976         1.15279
C         47.71345        56.99764         0.36930
C         46.45993        56.30681         0.80369
C         47.73401        58.48363         0.41676
C         46.45243        59.19065         0.62357
C         47.73988        61.30310         0.78229
C         46.48163        60.60189         0.71530
C         47.72190        62.70952         0.82627
C         46.49819        63.44349         0.92393
C         47.70238        65.60409         1.18223
C         46.51239        64.87526         1.16984
C         47.74964        66.94766         1.78497
C         46.41636        67.62417         2.07663
C         47.71895        69.52561         2.84463
C         46.42302        69.06857         2.39161
C         47.68033        71.64963         2.87869
C         46.37423        72.12828         2.55115
C         47.51710        74.18738         1.87257
C         46.31588        73.53456         2.19985
C         48.84706        38.00685         1.14685
C         50.10595        40.03279         0.50504
C         48.88474        39.32159         0.61895
C         50.13740        41.37930         0.09615
C         48.90597        42.04762        -0.27087
C         50.17308        44.17466        -0.53716
C         48.92881        43.41986        -0.65147
C         50.20151        45.53862        -0.78293
C         49.03538        46.21277        -1.36420
C         50.25342        48.53569        -1.30065
C         49.00502        47.70433        -1.35020
C         50.23808        50.03367        -0.96804
C         49.03038        50.73806        -0.42879
C         50.26717        52.72557         0.28103
C         49.10706        52.00862         0.29991
C         50.36499        54.11999         0.85971
C         49.01587        54.79671         0.66774
C         50.28026        57.00192         0.50885
C         49.00501        56.24905         0.36167
C         50.19905        58.40298         0.83683
C         49.01424        59.13830         0.75837
C         50.18845        61.22143         1.24888
C         48.99475        60.56481         0.93571
C         50.28797        62.66468         1.02452
C         48.99686        63.44249         0.75839
C         50.20463        65.57246         1.65999
C         48.99290        64.92825         0.97806
C         50.19721        66.99149         2.14933
C         49.01314        67.79867         1.61925
C         50.16549        69.90124         2.44004
C         48.94803        69.10278         2.37575
C         50.13450        71.40236         2.46230
C         48.86021        72.17828         2.39662
C         49.94142        74.15573         1.39037
C         48.77899        73.51824         1.85544
C         51.35916        42.09011         0.05860
C         52.64032        44.15980        -0.20688
C         51.41182        43.48099        -0.19867
C         52.73254        45.60587        -0.22341
C         51.38476        46.36588        -0.50979
C         52.71116        48.44883        -0.43384
C         51.56983        47.73326        -1.18510
C         52.73858        49.93224        -0.29066
C         51.54639        50.73560        -0.69388
C         52.79893        52.78227         0.21567
C         51.53126        52.14654        -0.22002
C         52.80036        54.15471         0.40708
C         51.50859        54.88098         0.14025
C         52.73962        57.00560         0.85567
C         51.49506        56.33270         0.55295
C         52.72715        58.35109         1.24787
C         51.41233        59.00586         1.41866
C         52.68252        61.19684         1.98827
C         51.36930        60.49439         1.73391
C         52.63040        62.67915         2.16529
C         51.35461        63.35721         1.77541
C         52.97137        65.75591         2.67802
C         51.15059        64.61686         2.22602
C         52.79394        67.10529         2.39992
C         51.47211        67.77499         2.48449
C         52.56885        69.93746         1.74110
C         51.40043        69.25695         2.26783
C         52.49023        71.31073         1.36250
C         51.35351        72.11416         1.85001
C         52.26660        74.08532         0.66202
C         51.18691        73.48497         1.29661
C         53.98336        46.33322        -0.45400
C         55.21339        48.48075        -0.31392
C         54.02179        47.72977        -0.40689
C         55.24190        49.90365        -0.12815
C         54.02071        50.64107        -0.08344
C         55.24880        52.73927         0.33980
C         54.02193        52.03491         0.16825
C         55.24215        54.14883         0.55841
C         54.01106        54.86952         0.60273
C         55.21038        56.98597         0.97373
C         53.99059        56.28639         0.80101
C         55.20283        58.39673         1.23995
C         53.95650        59.07924         1.43144
C         55.17782        61.19649         1.70155
C         53.96154        60.48307         1.69135
C         55.15117        62.69412         1.66536
C         53.88519        63.48808         1.90648
C         55.16138        65.62916         1.62731
C         54.03037        64.94706         2.18746
C         55.10975        67.03651         1.43255
C         54.03434        67.88769         2.08100
C         54.78580        69.83690         0.69619
C         53.76325        69.22476         1.43418
C         54.67559        71.18360         0.24621
C         53.52607        71.92894         0.62697
C         54.51369        74.01192        -0.28710
C         53.46653        73.36759         0.33410
C         56.45924        50.61426         0.02882
C         57.70082        52.74612         0.34020
C         56.48923        52.01728         0.24232
C         57.71316        54.15223         0.52108
C         56.46875        54.86780         0.65536
C         57.68572        56.99351         0.89345
C         56.45474        56.27319         0.85387
C         57.68902        58.40432         1.10047
C         56.43629        59.11363         1.33098
C         57.70502        61.24999         1.65189
C         56.41590        60.51116         1.56505
C         57.72367        62.75080         1.57147
C         56.42099        63.48427         1.71923
C         57.48403        65.56533         0.81466
C         56.34102        64.90293         1.30402
C         57.34996        66.93851         0.46888
C         56.16276        67.65753         0.75396
C         57.11653        69.79679        -0.34714
C         55.95230        69.04295         0.25752
C         57.04486        71.26157        -0.44156
C         55.81870        71.86897        -0.34424
C         56.88997        74.00563        -1.20736
C         55.61848        73.23949        -0.94813
C         58.91979        54.88759         0.54250
C         60.14562        57.02335         0.69441
C         58.92301        56.29049         0.70309
C         60.14875        58.40152         0.85179
C         58.92231        59.08673         1.05008
C         60.11852        61.30406         0.75586
C         58.97935        60.53609         1.32056
C         59.98814        62.67888         0.50022
C         58.83397        63.43192         0.88385
C         59.86564        65.50159         0.07655
C         58.73158        64.81975         0.57445
C         59.84642        66.97915         0.06795
C         58.52031        67.64771        -0.08881
C         59.67306        69.95457        -0.47343
C         58.44201        69.10170        -0.43457
C         59.55478        71.34519        -0.92909
C         58.31142        72.08742        -0.49159
C         59.31301        74.07170        -1.64894
C         58.13955        73.42403        -1.17095
C         61.44734        59.16876         1.00876
C         62.48578        61.25927         0.09019
C         61.35606        60.60833         0.53588
C         62.42443        62.62604        -0.43310
C         61.07329        63.36848        -0.21655
C         62.25149        65.51739        -0.63123
C         61.09663        64.83958        -0.21900
C         62.12187        66.92971        -1.06333
C         61.03166        67.72641        -0.44863
C         62.04279        69.91862        -1.40244
C         60.98910        69.22245        -0.65668
C         61.92414        71.28173        -1.58426
C         60.69395        72.01779        -1.32423
C         61.67146        74.10179        -2.28575
C         60.58402        73.43302        -1.72616
C         63.61063        63.45100        -0.63898
C         64.61779        65.59113        -1.35269
C         63.51053        64.83986        -0.90048
C         64.59867        67.09413        -1.40176
C         63.23014        67.65168        -1.75191
C         64.39728        69.85541        -2.38329
C         63.09862        69.12864        -2.14670
C         64.25991        71.24811        -2.60129
C         63.12664        72.02581        -2.02161
C         64.09625        74.13492        -3.14038
C         63.00726        73.50436        -2.37759
C         65.70690        67.77358        -2.14278
C         66.92180        69.81770        -2.69846
C         65.65528        69.13468        -2.47684
C         67.02993        70.99119        -3.43448
C         65.15030        71.96999        -3.40111
C         66.46671        73.96968        -3.96687
C         65.22791        73.40458        -3.50189
C         68.00767        72.01956        -3.46506
C         67.70953        73.33362        -3.88446
O         38.76739        59.91516         1.22236
O         47.17836        66.90499         3.12479
O         56.12134        69.14075        -1.19802
O         65.92210        71.24770        -4.29481
O         44.24337        68.83758         0.38883
O         51.36263        54.81584        -1.29376
O         33.45269        61.37721        -2.38041
O         36.04399        65.60183        -1.54625
O         62.58481        69.12675        -3.60875
O         52.33291        49.04563         0.83956
O         60.63013        69.85575         0.61925
O         32.22503        56.83900         0.62745
O         34.30911        64.05728         1.12507
O         45.89364        49.74337         1.00742
O         48.66877        45.62592        -2.69020
O         50.05180        65.56120         0.19303
O         51.68944        51.80833        -1.66425
O         47.21301        51.81465         1.89025
O         39.52791        46.19036         0.51047
O         57.29627        63.31780         2.87137
O         51.16011        72.01257         3.30138
O         60.87200        67.46441         0.99094
O         44.29021        51.82155         1.61240
O         27.14231        71.48172        -1.96998
O         36.78001        51.31991        -2.83804
O         45.09144        40.05715        -1.47270
O         46.20609        47.53691         0.11902
O         36.65913        73.18562         0.06114
O         58.61572        60.81033         2.72972
O         41.38137        42.47464        -2.12662
O         37.51251        54.83100        -2.45352
O         51.92028        65.06101         3.29535
O         43.31162        71.38995         3.87718
O         51.12061        59.50563         2.77566
O         47.73268        70.57261         3.76892
O         50.26589        49.54532        -2.35543
O         51.88726        46.26735         0.81324
O         47.63262        49.58571        -1.94434
O         39.92908        47.96518        -2.51934
O         35.96102        56.58078         0.52449
O         54.35209        63.18331         0.53195
O         28.35896        65.18977         1.63524
O         62.29222        66.87690        -2.54845
O         46.46577        55.86125         2.19748
O         37.65969        61.13385        -1.94435
O         49.90501        63.06977        -0.32721
O         37.86156        52.37146         0.38956
O         52.65665        61.83215         3.33777
O         39.36586        68.87744        -0.62202
O         35.13377        53.73015        -2.78650
O         29.65434        67.33613         1.96561
O         44.21293        54.48447         2.06662
O         47.63821        57.75060        -0.88091
O         58.41505        68.09264        -1.50118
O         61.41269        62.78213        -1.50261
O         45.19355        35.95824         0.14378
O         31.92318        67.69858        -0.88518
O         50.54742        67.25941         3.51494
O         63.52695        73.01977        -1.04188
O         33.45996        58.72219        -2.38357
O         46.21215        46.18586        -3.27730
H         47.09544        46.05360        -3.69617
O         49.20115        68.09065         0.22086
H         49.48867        67.25605        -0.22755
O         30.14277        63.30979        -2.09126
H         30.84321        62.88065        -2.62805
O         58.57444        72.38441         0.92742
H         59.45749        72.80776         0.98957
O         24.71243        70.47886         0.61800
H         23.89390        70.93748         0.33300
O         44.10662        39.96830         2.05964
H         43.32508        39.70272         2.58996
O         48.11529        54.04270         2.71165
H         47.52146        53.35949         3.10412
O         52.01445        47.47250        -2.53058
H         51.70232        48.21476        -3.09662
O         37.53092        48.50947        -3.06753
H         38.41586        48.64459        -3.48053
O         40.80023        71.74834         4.02662
H         41.59559        71.80014         4.60767
O         55.09030        72.95880        -2.30835
H         54.37856        72.28953        -2.21478
O         61.79059        59.16691         2.40930
H         61.06066        59.60082         2.90033
O         40.17811        52.69651         1.41940
H         39.23480        52.83091         1.66967
O         44.28021        51.10318        -1.98979
H         43.89978        50.45849        -2.62340
O         50.73034        54.06555         2.24699
H         49.90740        53.90277         2.77447
O         27.09844        71.88087         1.64393
H         27.55358        71.45095         2.39765
O         64.76034        67.54475         0.01190
H         65.62583        67.21318         0.33357
O         61.15053        69.00579        -3.59313
H         61.02359        68.02017        -3.57097
O         54.62269        68.23234         3.39808
H         53.92628        68.67860         3.92690
O         48.85567        55.21307        -0.71578
H         50.43604        55.06800        -1.52682
H         23.93428        75.42077        -2.80974
H         26.07173        75.43398        -1.55903
H         28.22265        75.43447        -0.20405
H         30.48547        75.37142         0.73718
H         32.81533        75.29759         1.52112
H         35.17022        75.19467         2.21118
H         37.76733        75.19269         2.41438
H         40.21489        75.21112         2.28962
H         42.60670        75.18194         2.28417
H         44.97184        75.23720         1.95588
H         47.48227        75.24447         1.57067
H         49.87057        75.18395         1.00509
H         52.17131        75.12472         0.31239
H         54.43512        75.09078        -0.49203
H         56.77936        75.01124        -1.64425
H         59.22284        75.09437        -2.04694
H         61.52713        75.11564        -2.68853
H         64.03799        75.21243        -3.35704
H         66.46767        75.04470        -4.20189
H         22.82914        69.54449        -2.77954
H         21.77248        71.72290        -3.42411
H         21.96315        74.18980        -3.68773
H         24.79804        65.26638        -1.22785
H         23.79985        67.39599        -1.99977
H         26.95685        60.97455        -0.40643
H         25.81511        63.12658        -0.47460
H         29.33662        56.67783        -0.93282
H         28.17325        58.80956        -0.50697
H         31.93485        52.27886        -0.93166
H         30.65991        54.37872        -0.99838
H         34.36714        48.03933        -0.79745
H         33.17104        50.15098        -0.94324
H         36.77229        43.64885        -0.70166
H         35.52484        45.87330        -0.77056
H         39.24331        39.48671         0.41788
H         37.99262        41.55394        -0.27722
H         41.68770        35.54291         2.00090
H         40.48435        37.49914         1.11995
H         45.03904        32.81800         4.10068
H         42.90320        33.76637         3.28512
H         47.21928        33.85110         3.54642
H         48.52001        35.62340         2.37012
H         49.78838        37.53370         1.46407
H         51.04588        39.53569         0.78803
H         52.28919        41.56063         0.31347
H         53.57194        43.57477        -0.21246
H         54.91589        45.75638        -0.54404
H         56.17168        47.93954        -0.30237
H         57.41031        50.06340        -0.02396
H         58.65899        52.21284         0.24767
H         59.87688        54.35994         0.41585
H         61.09513        56.47991         0.57936
H         62.27426        58.64074         0.47290
H         63.45887        60.74599         0.11827
H         64.60158        62.97381        -0.61102
H         65.57012        65.07237        -1.54241
H         66.68127        67.26263        -2.19510
H         67.80904        69.41313        -2.18995
H         69.03440        71.79612        -3.14142
H         68.58159        73.98779        -4.04853
