         420
 CSIRO Nanostructure Databank - Neutral Graphene Oxide Data Set
C         28.04214        27.30447         0.90176
C         28.01925        28.72410         1.01484
C         26.83252        29.41770         1.35716
C         27.99499        31.55071         1.18844
C         26.82848        30.79547         1.46534
C         28.01210        33.02493         1.44415
C         26.77679        33.81339         1.51765
C         28.03044        35.93826         1.43084
C         26.81492        35.17389         1.56346
C         28.01357        37.40526         1.63058
C         26.76797        38.18642         1.58395
C         27.98029        40.30068         1.18525
C         26.77899        39.53701         1.45969
C         27.90471        41.70639         0.92001
C         26.75199        42.48613         1.14467
C         27.91528        44.62051         0.76909
C         26.75538        43.88021         1.07964
C         28.00528        46.01910         0.90744
C         30.42838        27.35442         0.36159
C         29.20210        26.64927         0.56966
C         30.43233        28.76763         0.45768
C         29.21621        29.46006         0.76298
C         30.35385        31.63696         0.33321
C         29.17430        30.88326         0.82551
C         30.37208        33.12823         0.42542
C         29.26761        33.82176         1.14951
C         30.42164        36.00681         0.70277
C         29.22128        35.29776         1.08604
C         30.45858        37.41832         0.78904
C         29.30144        38.17499         1.31362
C         30.40468        40.31013         0.65466
C         29.20909        39.62035         1.01935
C         30.39567        41.70067         0.39831
C         29.09068        42.36886         0.35476
C         30.38547        44.60839         0.19603
C         29.09326        43.91049         0.26135
C         30.36879        46.01951         0.23856
C         29.17818        46.69623         0.57133
C         32.87475        24.56417        -0.42477
C         31.67938        25.26561        -0.16542
C         32.96734        27.34602         0.25059
C         31.65005        26.63165         0.07823
C         32.88290        28.83431         0.00970
C         31.66077        29.52040         0.22684
C         32.83551        31.67811        -0.03155
C         31.64254        30.93190         0.16464
C         32.84867        33.13081        -0.03915
C         31.63067        33.87616         0.22856
C         32.76382        36.00675        -0.26396
C         31.58698        35.26150         0.25157
C         32.81779        37.47867        -0.04166
C         31.62224        38.16960         0.48048
C         32.85693        40.29379         0.26905
C         31.63058        39.57449         0.48998
C         32.85265        41.71429         0.19004
C         31.59670        42.43501         0.18177
C         32.85193        44.58057         0.00025
C         31.59398        43.86042         0.07570
C         32.87005        45.98592        -0.08963
C         31.58276        46.75630        -0.28732
C         32.90512        48.83705         0.01718
C         31.72263        48.19515         0.13944
C         35.38207        23.12455        -0.89409
C         35.31001        24.51664        -0.93596
C         34.10970        25.21732        -0.57512
C         35.30565        27.36347        -0.65705
C         34.14374        26.65505        -0.41562
C         35.24812        28.83622        -0.72597
C         34.03849        29.55805        -0.29737
C         35.30188        31.70520        -0.35921
C         34.05345        30.98123        -0.27225
C         35.30849        33.12882        -0.27838
C         34.05319        33.81431        -0.20365
C         35.33011        35.99816        -0.19038
C         34.05922        35.26666        -0.59455
C         35.32267        37.43547         0.01342
C         34.12556        38.14944         0.09042
C         35.30354        40.28712         0.38527
C         34.09551        39.58247         0.26015
C         35.31526        41.69243         0.26438
C         34.08705        42.41153         0.11348
C         35.30704        44.55006        -0.08688
C         34.09071        43.85524         0.01219
C         35.32948        45.96097        -0.19031
C         34.10063        46.68993        -0.18899
C         35.32729        48.77852        -0.67007
C         34.12980        48.12277        -0.29721
C         35.40450        50.21813        -0.84985
C         37.82060        23.10347        -1.18283
C         36.58416        22.43210        -1.07542
C         37.83109        24.53787        -1.20713
C         36.52436        25.27562        -1.43028
C         37.75495        27.41795        -0.97487
C         36.56044        26.72061        -0.98151
C         37.79902        28.84446        -0.72023
C         36.54361        29.60099        -0.81097
C         37.76504        31.70884        -0.31382
C         36.53644        31.02789        -0.46930
C         37.77548        33.13952        -0.23359
C         36.53738        33.85308        -0.29219
C         37.79474        36.08024        -0.49016
C         36.52271        35.30069        -0.22690
C         37.79279        37.45400         0.16892
C         36.58531        38.11262         0.26793
C         37.82105        40.27374         0.64768
C         36.52846        39.52177         0.81032
C         37.77618        41.71455         0.51190
C         36.57573        42.38257         0.26615
C         37.77920        44.59197         0.25621
C         36.59906        43.79202        -0.27940
C         37.81868        45.96619        -0.37262
C         36.56148        46.66755        -0.41928
C         37.74489        48.62985        -1.36610
C         36.52829        48.01939        -0.79382
C         37.73542        50.11640        -1.68311
C         36.52952        50.85537        -1.26079
C         40.31837        20.29611        -1.40822
C         39.11958        20.96789        -1.32920
C         40.29262        23.11930        -1.23214
C         39.07085        22.38892        -1.24246
C         40.28383        24.54869        -1.17754
C         39.02994        25.23714        -1.21611
C         40.27781        27.37195        -0.84046
C         39.03365        26.73431        -1.41960
C         40.18622        28.70265        -0.22817
C         38.96403        29.51937        -0.40229
C         40.17878        31.65201         0.10216
C         38.99172        30.96310        -0.21601
C         40.21407        33.08917         0.13949
C         39.02838        33.81352        -0.10074
C         40.33110        36.00770         0.17550
C         39.08740        35.28680        -0.27066
C         40.26446        37.44820         0.51684
C         39.04354        38.13564         0.48364
C         40.27583        40.26943         1.16010
C         39.01072        39.56999         0.70087
C         40.28033        41.76096         0.83145
C         39.02906        42.44197         0.45497
C         40.27718        44.43775        -0.23039
C         39.06070        43.80181         0.17142
C         40.21723        45.74753        -0.90759
C         39.00019        46.57322        -0.75607
C         40.24473        48.61623        -1.43743
C         39.04373        47.94352        -1.20568
C         40.25755        50.04914        -1.72660
C         39.04854        50.79289        -1.83902
C         40.30441        52.78600        -2.44196
C         39.09753        52.16224        -2.16159
C         42.79542        20.32498        -1.47589
C         41.55138        21.00463        -1.39412
C         42.77058        23.14780        -1.26508
C         41.53917        22.42510        -1.29672
C         42.75170        24.57415        -1.11727
C         41.51464        25.26494        -1.08835
C         42.74202        27.38463        -0.54050
C         41.48609        26.69221        -0.81884
C         42.74057        28.74813        -0.17568
C         41.46295        29.39847         0.16350
C         42.71137        31.60768         0.43581
C         41.40949        30.87895         0.40342
C         42.68549        33.07885         0.39904
C         41.47766        33.79920         0.38914
C         42.71450        35.90316         0.91557
C         41.52360        35.22303         0.56777
C         42.73393        37.37883         0.91897
C         41.52534        38.11486         0.74190
C         42.75338        40.23188         0.57084
C         41.55424        39.55184         0.76435
C         42.91904        41.73986         0.67575
C         41.58619        42.48461         0.54864
C         42.66815        44.29785        -0.81135
C         41.48334        43.74886        -0.20439
C         42.76537        45.65094        -1.14180
C         41.51960        46.42564        -1.31615
C         42.71766        48.58740        -1.40882
C         41.52569        47.91272        -1.38742
C         42.78339        50.09609        -1.41739
C         41.49224        50.72675        -1.87893
C         42.77481        52.69431        -2.64660
C         41.52030        52.07777        -2.29956
C         43.98181        21.02556        -1.45424
C         45.24416        23.18534        -1.31063
C         44.00381        22.44363        -1.34380
C         45.21610        24.59839        -1.15250
C         43.99352        25.29261        -1.01952
C         45.22207        27.40902        -0.55451
C         43.98161        26.70493        -0.73976
C         45.21014        28.79898        -0.23206
C         43.96674        29.48576        -0.08204
C         45.18775        31.59897         0.20564
C         43.97030        30.88438         0.15984
C         45.16792        33.04172         0.43399
C         43.92307        33.73931         0.58441
C         45.16499        35.56877         1.47418
C         43.91627        35.10274         0.99278
C         45.19631        37.65756         1.42284
C         43.94751        38.15130         0.94021
C         45.24200        40.17279         0.25918
C         43.97956        39.50993         0.51890
C         45.26260        41.50321        -0.26180
C         43.98459        42.20017        -0.30185
C         45.54105        44.29918        -1.33527
C         43.74344        43.34318        -1.02719
C         45.31913        45.62662        -0.94710
C         44.06314        46.35785        -1.32878
C         45.21637        48.74806        -1.17620
C         44.01913        47.87886        -1.39718
C         45.27302        50.03228        -1.80088
C         44.03538        50.67832        -2.07241
C         43.96200        51.99373        -2.59352
C         47.70095        23.20185        -1.15766
C         46.49770        22.52281        -1.36489
C         47.74679        24.58793        -0.99267
C         46.50176        25.37612        -1.30729
C         47.68524        27.40024        -0.36931
C         46.46805        26.74391        -0.68604
C         47.68505        28.79054        -0.05851
C         46.44390        29.50318        -0.04094
C         47.67774        31.65131         0.53010
C         46.41570        30.90547         0.16469
C         47.63339        33.08774        -0.00268
C         46.37335        33.75757         0.47715
C         47.66443        35.80102         1.23165
C         46.39701        35.05258         1.04359
C         47.67087        37.35620         1.25311
C         46.43531        38.14448         1.03785
C         47.70957        40.14524         0.40722
C         46.47160        39.46396         0.46580
C         47.75029        41.53201         0.03073
C         46.53450        42.17262        -0.46567
C         47.84772        44.35001        -0.61921
C         46.62718        43.54157        -0.82135
C         47.69212        45.76959        -0.29143
C         46.37004        46.21583        -0.20913
C         47.65990        48.79486        -0.66892
C         46.33011        48.33293        -0.46379
C         47.72071        50.00723        -1.43392
C         46.58002        50.61907        -1.92155
C         50.22511        24.60139        -0.65779
C         48.95798        25.29079        -0.66606
C         50.15663        27.31879         0.20389
C         48.92552        26.66169        -0.36777
C         50.16862        28.81693         0.05154
C         48.94401        29.50796         0.07902
C         50.15630        31.64115         0.13157
C         48.95467        30.93370         0.16591
C         50.16869        33.13828        -0.11033
C         48.90156        33.83887         0.32194
C         50.16928        35.88435         0.80200
C         48.91918        35.12947         0.78788
C         50.15267        37.32920         0.89508
C         48.94195        38.03069         0.92270
C         50.12572        40.16238         0.93346
C         48.93055        39.45206         0.74864
C         50.04582        41.62787         1.00094
C         48.92153        42.26253         0.29838
C         50.12290        44.53215         0.56842
C         49.07643        43.67012        -0.03472
C         50.03010        45.94942         0.44268
C         48.82854        46.60885         0.01423
C         50.04634        48.75408        -0.03476
C         48.80390        48.04261        -0.20020
C         51.41376        25.26739        -0.47677
C         52.66594        27.37495        -0.05260
C         51.45612        26.65561        -0.17744
C         52.64671        28.80644         0.12100
C         51.40130        29.52152         0.11782
C         52.63927        31.67390         0.26763
C         51.40386        30.95086         0.13347
C         52.63653        33.10440         0.39232
C         51.42276        33.81626         0.36523
C         52.65338        35.98257         0.33122
C         51.38155        35.21736         0.58352
C         52.62866        37.40361         0.81359
C         51.39756        38.06695         0.89746
C         52.59004        40.21868         1.18313
C         51.37600        39.49417         1.07113
C         52.61246        41.70746         1.52442
C         51.28746        42.43003         1.28312
C         52.54186        44.58284         1.07415
C         51.30802        43.87961         0.97227
C         52.52238        46.04671         1.22008
C         51.16212        46.77437         0.90349
C         51.15208        48.18783         0.52064
C         55.10989        27.40178         0.06687
C         53.94019        26.71396        -0.10532
C         55.10842        28.81901         0.26136
C         53.86514        29.52542         0.24833
C         55.09950        31.64200         0.60966
C         53.86559        30.95551         0.37482
C         55.09760        33.08381         0.78035
C         53.88323        33.80848         0.64297
C         55.09301        35.93440         0.94025
C         53.89772        35.22460         0.71114
C         55.09078        37.39969         0.97663
C         53.84676        38.11221         0.95266
C         55.07620        40.27604         1.10412
C         53.82464        39.54389         1.09649
C         55.07304        41.71400         1.02988
C         53.74771        42.39593         0.75723
C         54.99177        44.60248         0.98549
C         53.76095        43.89239         0.99630
C         54.96930        46.04892         1.00882
C         53.80909        46.74561         1.12037
C         56.30979        29.52608         0.46039
C         56.29982        30.90166         0.65159
C         56.28207        33.80871         1.05666
C         56.27972        35.18885         1.14872
C         56.27742        38.13888         1.07856
C         56.27195        39.53526         1.11327
C         56.23373        42.48633         1.05962
C         56.20566        43.88950         0.98447
O         40.95395        42.56343         1.88046
O         47.77384        36.55052         2.47136
O         48.95872        43.97402        -1.48248
O         50.32671        42.16143         2.37345
O         45.14406        36.63274         2.37355
O         32.45568        36.92345        -1.38419
O         29.95901        32.48068        -0.83489
O         51.62587        46.52262         2.26876
O         40.67526        28.67855         1.17290
O         44.59053        43.63779        -2.11674
O         40.65610        45.75817        -2.30506
O         35.76012        29.31333        -2.02623
O         28.82903        43.06628        -0.90567
O         37.49580        49.12602        -2.73725
O         44.19439        47.04973        -2.62168
O         28.93365        37.83098         2.69384
O         29.00492        33.32745         2.50306
O         42.03052        31.18345         1.69955
O         40.07820        35.71466        -1.27735
O         46.10514        47.36556         0.52890
O         36.38814        25.34853        -2.89444
H         37.19267        25.81227        -3.22687
O         34.15365        35.19574        -2.05250
H         33.69893        36.00062        -2.39948
O         43.44488        42.00480         2.00205
H         42.67150        42.11678         2.60118
O         37.52282        44.79459         1.67705
H         38.33988        45.14069         2.09245
O         50.23591        33.26093        -1.58437
H         49.36798        32.92615        -1.92258
O         46.59877        25.63953        -2.77757
H         46.61815        24.76249        -3.21833
O         37.71696        36.36553        -1.92114
H         38.64706        36.41986        -2.24585
O         47.54038        32.97652        -1.46151
H         47.30667        33.85903        -1.81888
O         52.71060        36.10156        -1.14570
H         52.52825        35.20949        -1.51461
O         36.36803        39.37869         2.27670
H         37.24440        39.13152         2.64450
O         31.36382        46.80592        -1.74616
H         32.15722        47.22308        -2.14495
O         36.80478        43.65756        -1.71577
H         36.02335        43.20522        -2.09698
O         33.27313        27.23070         1.69832
H         33.21911        26.27853         1.92947
O         53.43886        42.19460        -0.65687
H         54.18689        42.54702        -1.18309
O         39.06180        26.91716        -2.88627
H         38.93070        27.87230        -3.06964
O         52.91050        41.81423         2.93215
H         52.05336        41.74080         3.41021
O         40.21491        40.15876         2.61878
H         40.65017        40.96422         2.98217
O         47.68591        31.77581         1.98297
H         47.65564        30.87420         2.36630
O         50.04856        27.09499         1.67732
H         50.87602        27.43907         2.07803
O         42.90809        50.48395         0.00874
H         42.94664        51.46413         0.03670
H         27.11782        26.73794         1.08481
H         25.91491        28.84558         1.55532
H         25.90486        31.30806         1.76672
H         25.80454        33.30100         1.52112
H         25.86635        35.71784         1.67215
H         25.80243        37.66579         1.65139
H         25.81614        40.06598         1.46175
H         25.82587        41.99651         1.47612
H         25.84208        44.42590         1.35879
H         27.12346        46.58644         1.23870
H         29.18700        25.55374         0.49720
H         29.16802        47.79398         0.60469
H         32.79988        23.48423        -0.60806
H         30.74413        24.68956        -0.19727
H         32.95609        49.91769         0.21522
H         30.82424        48.77401         0.39596
H         34.48654        22.53518        -0.65124
H         34.52468        50.82383        -0.58991
H         36.55643        21.33555        -1.03053
H         36.54702        51.95488        -1.27854
H         40.33346        19.19924        -1.48353
H         38.18739        20.38790        -1.34829
H         40.32312        53.83497        -2.76959
H         38.16310        52.73172        -2.26018
H         42.80285        19.22848        -1.55676
H         42.76251        53.72444        -3.02996
H         44.92304        20.46421        -1.51888
H         44.88143        52.47488        -2.95802
H         48.61684        22.60086        -1.07513
H         46.53851        21.43276        -1.48324
H         48.69442        50.47524        -1.63882
H         46.68621        51.57779        -2.44931
H         50.25958        23.53065        -0.89647
H         50.06711        49.82768        -0.26968
H         52.34924        24.70633        -0.60897
H         52.02782        48.80943         0.75239
H         56.07237        26.86999         0.05588
H         53.98089        25.62644        -0.25016
H         55.93005        46.58296         0.96338
H         53.82729        47.84216         1.18944
H         57.26212        28.97684         0.47410
H         57.25684        31.41264         0.81979
H         57.23264        33.27863         1.20170
H         57.22474        35.70259         1.37022
H         57.24876        37.62628         1.09551
H         57.23956        40.05523         1.13120
H         57.21377        42.00076         1.17068
H         57.15322        44.44674         0.99419
