         618
 CSIRO Nanostructure Databank - Neutral Graphene Oxide Data Set
C         23.26579        69.74380        -0.99405
C         23.25862        71.25246        -1.16895
C         22.24978        71.84050        -1.95593
C         23.25980        74.02879        -1.69550
C         22.24199        73.22143        -2.18955
C         25.37270        65.67597         0.21156
C         25.34638        67.10355         0.26748
C         24.12845        67.79268         0.32422
C         25.28806        70.02802         0.51609
C         23.96799        69.28794         0.31677
C         25.27130        71.55211         0.35962
C         24.26513        72.06301        -0.63797
C         25.44683        74.23582        -0.54761
C         24.31268        73.46149        -0.93058
C         27.80434        61.39920         0.21364
C         27.80408        62.81996         0.13243
C         26.60154        63.54167         0.16718
C         27.83369        65.68521         0.16589
C         26.58349        64.96569         0.17655
C         27.82991        67.11821         0.16854
C         26.59842        67.80884         0.25763
C         27.81082        70.01460         0.10857
C         26.57744        69.26843         0.48478
C         27.82581        71.49161         0.25496
C         26.62327        72.19092         0.11835
C         27.89496        74.27623        -0.08616
C         26.65152        73.60174        -0.12481
C         30.28269        57.04141         0.28886
C         30.27305        58.50461         0.65299
C         29.00996        59.25109         0.30658
C         30.25929        61.37704        -0.21341
C         28.98797        60.62754         0.17865
C         30.27560        62.84117         0.15340
C         29.06186        63.54666         0.13490
C         30.30933        65.68462         0.20748
C         29.06402        64.97804         0.17333
C         30.30546        67.11803         0.15806
C         29.08851        67.81025         0.10796
C         30.38986        70.06550        -0.17298
C         29.08201        69.27258        -0.12641
C         30.27990        71.35332         0.67896
C         29.05826        72.16278         0.32212
C         30.36299        74.24167         0.20667
C         29.10183        73.57922         0.17509
C         32.71402        52.81775        -0.29347
C         32.66330        54.21742        -0.41092
C         31.48420        54.93671        -0.14191
C         32.61975        57.14395        -0.51696
C         31.41239        56.36619        -0.11890
C         32.73580        58.53229        -0.03158
C         31.52208        59.25238         0.25706
C         32.73307        61.37950         0.27654
C         31.51437        60.63830         0.18232
C         32.73481        62.77329         0.34817
C         31.51326        63.52760         0.25495
C         32.78066        65.68190         0.30283
C         31.53906        64.96612         0.27351
C         32.78902        67.12075         0.27453
C         31.56406        67.84478         0.21461
C         32.78380        69.94142         0.58275
C         31.59406        69.25532         0.26075
C         32.75704        71.39801         0.75088
C         31.58023        72.12092         0.64397
C         32.80934        74.24528         0.29065
C         31.58648        73.56156         0.43617
C         35.24461        48.60799        -0.13484
C         35.12195        49.87047        -0.95161
C         33.91342        50.69577        -0.59086
C         35.23828        52.79322        -0.33015
C         33.92270        52.05721        -0.44872
C         35.18119        54.18700        -0.92722
C         33.88034        54.92516        -0.90967
C         35.17462        57.15883        -0.78500
C         33.88930        56.42926        -0.91555
C         35.17788        58.49683        -0.42084
C         33.95968        59.17971        -0.02902
C         35.23397        61.32550         0.22348
C         33.97666        60.57055         0.59032
C         35.23734        62.80648         0.27493
C         33.99278        63.50789         0.76416
C         35.24993        65.64034         0.35287
C         34.01896        64.98295         0.42173
C         35.30828        67.12106         0.03601
C         34.01807        67.83541         0.36783
C         35.27250        69.88263         1.02616
C         34.00576        69.20790         0.64031
C         35.28838        71.37991         1.18488
C         33.99151        72.12067         1.08813
C         35.36776        74.22121         0.53540
C         34.04594        73.66671         0.76853
C         37.67634        44.51828         1.00069
C         37.64328        45.78459         0.37435
C         36.48713        46.58452         0.43662
C         37.56407        48.37150        -1.01644
C         36.39792        47.86250        -0.18700
C         37.66581        49.89187        -0.99368
C         36.43477        50.64100        -0.93266
C         37.63866        52.78808        -1.14052
C         36.42822        52.01973        -0.85415
C         37.65878        54.26385        -0.93360
C         36.45587        54.94590        -0.92902
C         37.78006        57.12103        -0.97265
C         36.43210        56.41146        -1.07108
C         37.77391        58.58676        -0.68811
C         36.44601        59.28191        -0.44500
C         37.75869        61.36492         0.08783
C         36.52094        60.55206         0.39151
C         37.75753        62.77493         0.24503
C         36.52023        63.53254         0.36267
C         37.78306        65.66265         0.09861
C         36.48982        64.91865         0.36329
C         37.77406        67.11657         0.51709
C         36.56548        67.81514         0.52811
C         37.77170        69.90656         1.04422
C         36.56863        69.19895         0.83505
C         37.77489        71.36793         1.11732
C         36.56327        72.09497         1.03191
C         37.82108        74.16960         0.72021
C         36.56819        73.50939         0.78375
C         40.19929        40.41095         2.18929
C         40.11810        41.60599         1.49124
C         38.89438        42.36448         1.49355
C         39.94759        44.10860         0.19074
C         38.81901        43.66016         0.94950
C         40.10768        45.56740        -0.06590
C         38.85488        46.37067        -0.21937
C         40.13305        48.36161        -1.02931
C         38.86268        47.65490        -0.69777
C         40.16938        49.85402        -0.93743
C         38.89919        50.54233        -0.98418
C         40.19834        52.70853        -0.82371
C         38.95723        52.00201        -1.16974
C         40.12594        54.13472        -0.47832
C         38.92058        54.93764        -0.77150
C         40.20993        57.01665        -0.33057
C         38.98966        56.33388        -0.63853
C         40.18970        58.43477         0.18754
C         38.97803        59.23832        -0.18717
C         40.23537        61.33993         0.02891
C         38.98103        60.64331        -0.03583
C         40.22502        62.76952         0.23202
C         38.98408        63.46416         0.33622
C         40.22806        65.66499         0.65024
C         38.93640        64.91590         0.75743
C         40.24770        67.05295         0.70518
C         39.00220        67.79306         0.73032
C         40.26802        69.89218         1.09209
C         39.02611        69.20431         0.96364
C         40.24295        71.32766         1.59526
C         39.00452        72.06918         1.15373
C         40.26927        74.19918         0.94290
C         39.02974        73.48267         0.96663
C         42.69526        36.22441         1.34163
C         42.66189        37.56797         1.77171
C         41.48910        38.29794         1.96154
C         42.68530        40.39867         1.75923
C         41.50125        39.73806         2.46163
C         42.60120        41.48629         0.88349
C         41.26922        42.07254         0.73124
C         42.85394        44.14267        -0.64900
C         40.96649        43.19299        -0.07277
C         42.75833        45.52854        -0.51430
C         41.43059        46.21133        -0.36878
C         42.63722        48.41673        -0.55025
C         41.41655        47.62097        -0.87839
C         42.67613        49.82449        -1.10818
C         41.36741        50.55899        -0.88229
C         42.65036        52.73502        -0.56117
C         41.39795        52.00778        -0.72207
C         42.69653        54.11742        -0.43791
C         41.44568        54.87179        -0.26895
C         42.69956        57.02395        -0.29199
C         41.44956        56.34276        -0.32447
C         42.71180        58.47128        -0.20794
C         41.47387        59.18708        -0.06460
C         42.71181        61.32163        -0.14106
C         41.44276        60.59177        -0.05657
C         42.69097        62.81350         0.11832
C         41.42490        63.47079         0.42687
C         42.72348        65.62064         0.20239
C         41.48225        64.90082         0.88126
C         42.73162        67.09575         0.56357
C         41.50092        67.77663         0.73983
C         42.76186        69.87328         0.88301
C         41.50558        69.19573         0.91964
C         42.79860        71.34097         1.05025
C         41.54782        72.09914         1.34573
C         42.71942        74.25262         0.84690
C         41.51701        73.55675         1.01623
C         45.09877        33.44669         0.56460
C         43.90304        34.14519         0.77182
C         45.17575        36.10220         1.49908
C         43.91305        35.48903         1.22575
C         45.23347        37.48978         1.85098
C         43.96471        38.21260         2.06914
C         45.24170        40.39982         1.65815
C         43.96867        39.73222         2.03872
C         45.12240        41.49333         0.67695
C         43.88932        42.05890         0.33637
C         45.18781        44.14768        -0.28311
C         43.98085        43.39521        -0.26424
C         45.18808        45.55852        -0.34605
C         43.95475        46.24785        -0.32740
C         45.21406        48.43359        -0.48004
C         43.93075        47.71976        -0.24817
C         45.19213        49.78804        -0.67901
C         43.90207        50.51680        -0.54838
C         45.21944        52.71177        -0.49787
C         43.92289        51.99257        -0.42009
C         45.19400        54.14350        -0.39516
C         43.94521        54.84523        -0.36341
C         45.18821        56.95724        -0.24592
C         43.93381        56.26968        -0.31051
C         45.20991        58.43280        -0.55337
C         43.94210        59.16769        -0.20528
C         45.18231        61.27584         0.15120
C         43.98551        60.57837        -0.01328
C         45.20300        62.64200         0.72509
C         43.92293        63.41617         0.71416
C         45.23450        65.63494         0.70946
C         43.94866        64.90898         0.77904
C         45.18910        67.00575         0.05754
C         43.94688        67.78092         0.46533
C         45.22442        69.91917         0.45091
C         43.97829        69.19958         0.60763
C         45.26517        71.31884         0.45950
C         43.97845        72.05253         0.46187
C         45.28949        74.21636         0.57084
C         43.98159        73.57844         0.50882
C         46.33139        34.04610         0.79258
C         47.62983        35.98036         1.61266
C         46.40658        35.38903         1.27780
C         47.71827        37.36079         2.18535
C         46.44649        38.14863         1.98205
C         47.73480        40.10961         1.06378
C         46.52866        39.60990         1.77566
C         47.68429        41.30276         0.39487
C         46.39039        41.96117         0.08044
C         47.70655        44.17518        -0.37631
C         46.44163        43.42389        -0.40839
C         47.70075        45.54326        -0.23814
C         46.45252        46.29088        -0.31498
C         47.69180        48.49217        -0.22117
C         46.44763        47.67129        -0.43242
C         47.69092        49.80723        -0.99914
C         46.37530        50.57800        -1.17200
C         47.67459        52.72327        -0.65878
C         46.41576        52.02103        -0.67151
C         47.67685        54.13774        -0.45267
C         46.42565        54.84828        -0.33232
C         47.69160        56.97046         0.16951
C         46.39843        56.26868        -0.19674
C         47.67804        58.47276        -0.04077
C         46.48231        59.13616        -0.14261
C         47.74134        61.35458         0.01019
C         46.45144        60.60678        -0.17983
C         47.74264        62.74728         0.46611
C         46.51041        63.39786         1.02740
C         47.67812        65.57912         0.58414
C         46.49697        64.87968         0.68473
C         47.66344        67.04133         0.45542
C         46.48837        67.73555         0.28475
C         47.73837        69.91408         0.34488
C         46.46954        69.19947        -0.03544
C         47.73292        71.32804         0.40831
C         46.48734        72.04464         0.36886
C         47.74421        74.16546         0.49435
C         46.49064        73.49081         0.44888
C         48.93635        38.02407         1.61030
C         50.18818        39.94968         0.73344
C         48.96766        39.32525         1.11939
C         50.22352        41.27311         0.24280
C         48.93251        41.88941        -0.14552
C         50.22785        44.09215        -0.40819
C         48.95524        43.38946        -0.49728
C         50.18570        45.56882        -0.67583
C         49.00895        46.27960         0.02259
C         50.17792        48.42981        -0.44440
C         48.99318        47.74298        -0.35517
C         50.22523        49.86440        -0.61533
C         48.97045        50.57181        -0.95423
C         50.13976        52.72146        -0.62667
C         48.91973        52.04055        -0.81273
C         50.12552        54.13289        -0.43766
C         48.91817        54.83631        -0.40890
C         50.16967        57.04409        -0.09205
C         48.90000        56.34631        -0.52333
C         50.18693        58.42436         0.05991
C         48.94105        59.18163         0.05628
C         50.18399        61.30297         0.38308
C         48.97854        60.57542         0.15398
C         50.19151        62.70670         0.42976
C         48.94144        63.43418         0.50816
C         50.15035        65.58371         0.54673
C         48.94843        64.87916         0.59974
C         50.14479        67.03148         0.57915
C         48.93372        67.74670         0.52191
C         50.17334        69.87359         0.71676
C         48.93971        69.18210         0.51092
C         50.18576        71.31783         0.71842
C         48.96689        72.03330         0.55340
C         50.22057        74.15101         0.61424
C         48.97681        73.47243         0.55246
C         51.41432        41.99188         0.06824
C         52.67178        44.12659        -0.26085
C         51.43962        43.39731        -0.23508
C         52.69437        45.54699        -0.31746
C         51.48305        46.25261        -0.39744
C         52.67430        48.37438        -0.82142
C         51.48313        47.72903        -0.12508
C         52.69822        49.87018        -0.63767
C         51.42984        50.57375        -0.65329
C         52.62406        52.73504        -0.68030
C         51.41198        52.01947        -0.65871
C         52.67832        54.13998        -0.46951
C         51.41011        54.80273        -0.12442
C         52.69605        57.01697        -0.03316
C         51.41852        56.29954         0.08902
C         52.67325        58.43574         0.10963
C         51.43673        59.10916         0.25366
C         52.74143        61.32543         0.44132
C         51.42492        60.54041         0.55920
C         52.65670        62.78020         0.22828
C         51.42185        63.45393         0.40632
C         52.61554        65.60112         0.26579
C         51.40268        64.87809         0.41583
C         52.63388        67.02666         0.50261
C         51.38957        67.72867         0.69317
C         52.61151        69.81531         1.26024
C         51.37123        69.13419         0.86934
C         52.60874        71.31042         1.33257
C         51.39652        72.02740         0.89789
C         52.70569        74.11698         0.77460
C         51.43663        73.45007         0.78559
C         53.93536        46.30199        -0.25346
C         55.16767        48.43816        -0.44208
C         53.97046        47.67744        -0.45269
C         55.17392        49.84307        -0.61038
C         53.89658        50.53953        -0.71281
C         55.18506        52.75436        -0.85557
C         53.88479        52.00169        -0.91020
C         55.15464        54.19838        -0.55500
C         53.89708        54.86923        -0.41757
C         55.13656        57.03697        -0.25711
C         53.89764        56.30671        -0.21532
C         55.12663        58.43849        -0.14387
C         53.92086        59.15769         0.05302
C         55.10615        61.30115        -0.31507
C         53.94747        60.58286         0.06641
C         54.99347        62.74930        -0.58533
C         53.80527        63.50054        -0.13660
C         55.04569        65.65827        -0.30459
C         53.81388        64.91729        -0.08353
C         55.05515        67.08937        -0.02148
C         53.85828        67.71605         0.45878
C         55.16947        69.86841         0.82779
C         53.93758        69.08569         0.99140
C         55.25363        71.25065         1.48829
C         53.92992        72.04371         1.41401
C         55.16140        74.09643         0.73722
C         53.92867        73.45331         0.95050
C         56.38113        50.58486        -0.56075
C         57.62389        52.73036        -0.49803
C         56.43769        51.99835        -0.61221
C         57.63703        54.16279        -0.52665
C         56.37523        54.88067        -0.46476
C         57.59792        56.99943        -0.54865
C         56.39069        56.31520        -0.39258
C         57.55448        58.46364        -0.73817
C         56.42786        59.20007        -0.05958
C         57.54960        61.37852        -0.69783
C         56.34386        60.65365        -0.47552
C         57.55318        62.81037        -0.74347
C         56.26511        63.52903        -0.82117
C         57.47679        65.70676        -0.85607
C         56.22410        64.98616        -0.60771
C         57.46949        67.21910        -0.60720
C         56.23903        67.84069        -0.09774
C         57.57785        69.90478         0.34676
C         56.29932        69.21777         0.34205
C         57.64532        71.25011         0.79381
C         56.47278        72.03802         1.04458
C         57.57185        74.25126         0.42548
C         56.42907        73.44879         0.82214
C         58.83698        54.88545        -0.58663
C         60.05389        57.04853        -0.78973
C         58.85438        56.31225        -0.66268
C         60.09941        58.47490        -0.92727
C         58.81255        59.21288        -1.01690
C         59.99973        61.38322        -0.90151
C         58.81023        60.68738        -0.82973
C         60.01146        62.81456        -0.73254
C         58.75508        63.53012        -0.69981
C         59.94481        65.69424        -0.61819
C         58.76175        64.98289        -0.72592
C         59.96330        67.14311        -0.54161
C         58.76613        67.86736        -0.38052
C         60.03500        69.94728        -0.08537
C         58.79039        69.24128        -0.01660
C         60.09788        71.31288         0.33278
C         58.94331        71.81639         0.92991
C         60.13489        74.38664         0.26458
C         58.88615        73.94404         0.76219
C         61.27055        59.20302        -0.92806
C         62.50583        61.41695        -0.80177
C         61.28465        60.67488        -1.27671
C         62.48598        62.78687        -0.58785
C         61.22041        63.49873        -0.61556
C         62.47918        65.65145        -0.67945
C         61.20999        64.95493        -0.24661
C         62.47501        67.13886        -0.75181
C         61.19986        67.86644        -0.56271
C         62.46956        70.03820        -0.78792
C         61.21911        69.25390        -0.45505
C         62.47476        71.45067        -0.20674
C         61.32749        72.10182         0.21807
C         62.54585        74.26887         0.22925
C         61.31840        73.58293         0.30606
C         63.69944        63.52730        -0.33534
C         64.90890        65.67522        -0.13092
C         63.74224        64.92702        -0.36203
C         64.93268        67.10819        -0.09908
C         63.72533        67.87888        -0.46195
C         65.09646        69.90759        -0.45993
C         63.73195        69.24066        -0.47828
C         65.05719        71.42039        -0.35379
C         63.73907        72.19031        -0.32916
C         65.01889        74.24560         0.21170
C         63.78667        73.60677         0.07884
C         66.03252        67.78063         0.40214
C         67.32387        69.93902         0.64727
C         65.98093        69.27164         0.61481
C         67.40933        71.33203         0.51509
C         66.24963        72.10295         0.15052
C         67.47262        74.16830         0.59315
C         66.25066        73.51488         0.27623
C         68.62225        72.03854         0.78823
C         68.64002        73.42912         0.80664
O         30.23347        61.38431        -1.62538
O         37.08753        59.38718        -1.72785
O         34.40178        54.32177        -2.14865
O         43.78699        51.09270         0.78632
O         33.86410        73.08221         2.12685
O         40.87760        47.82390        -2.22252
O         64.49025        71.98120        -1.59529
O         46.13054        40.59082         2.81321
O         38.29676        52.44321        -2.40494
O         54.56564        52.41861        -2.15729
O         42.51792        71.81259         2.42724
O         43.74737        72.77192        -0.75718
O         57.37138        66.65541        -1.96335
O         37.18936        56.82741        -2.26654
O         40.95779        46.15848         1.02211
O         62.48406        66.29831        -1.97752
O         55.41537        63.10034        -1.94908
O         44.49283        65.49460         2.00322
O         46.31279        42.30612        -1.33529
O         35.21313        70.49494         2.36545
O         48.46463        49.90389        -2.22324
O         42.74539        65.52470        -1.16989
O         57.89487        58.82976        -2.11345
O         32.98876        56.99497        -1.92560
O         53.11644        71.84429         2.61029
O         35.10801        62.08258        -1.00455
O         28.21110        69.63549        -1.27262
O         59.03772        72.93699         1.74657
O         40.65205        54.38677         0.87834
O         48.89962        42.33603        -1.52634
O         25.96011        69.66400         1.77478
O         44.03025        39.00894         3.30372
O         51.39837        55.35752         1.24526
O         47.12924        61.21362        -1.34958
O         53.33482        69.18849         2.35085
O         42.78853        62.29830        -1.24176
O         43.07414        48.27142         0.82364
O         52.20242        60.91499         1.74577
O         41.77043        43.46287        -1.17958
O         44.30792        62.71871         1.92973
O         47.64332        48.87981         1.20582
H         46.72657        49.16954         1.41112
O         46.12693        50.72950        -2.59907
H         46.99109        50.57312        -3.05363
O         21.93868        69.23227        -0.99626
H         21.56421        69.42605        -0.10913
O         65.73844        69.60777        -1.72268
H         65.29245        70.14407        -2.41366
O         45.07489        66.79516        -1.38368
H         44.18872        66.32667        -1.54468
O         34.05244        63.42797         2.22384
H         33.31644        63.96337         2.58765
O         24.84147        72.07417         1.65720
H         25.36082        71.58311         2.33314
O         45.24606        58.48604        -2.02668
H         46.12004        58.14814        -2.31956
O         34.89308        49.45453        -2.33284
H         35.65030        48.87006        -2.59310
O         37.25851        48.00590        -2.40976
H         38.00945        48.30266        -2.96799
O         37.98548        65.64306        -1.33385
H         37.24251        66.15085        -1.73769
O         30.64720        70.43941        -1.53949
H         29.78889        70.36680        -2.02163
O         40.09783        58.27818         1.66654
H         40.80318        57.65212         1.93902
O         40.09957        71.19592         3.04484
H         41.01579        71.17511         3.41152
O         48.72305        56.63487        -1.94580
H         49.44775        56.20456        -2.44611
O         36.66289        60.15990         1.78243
H         35.77900        60.21923         2.22290
O         61.26862        64.99858         1.22835
H         60.52940        64.45456         1.57393
O         52.46829        48.15305        -2.24702
H         53.16779        48.63747        -2.73399
O         35.43651        67.18496        -1.44048
H         34.63635        66.76553        -1.82546
O         42.87018        49.73021        -2.53879
H         42.14246        49.16807        -2.89822
O         23.06333        69.66172         1.38651
H         23.56460        69.58998         2.22672
O         35.48126        53.01252         1.09740
H         35.48622        52.13959         1.54372
O         55.49619        70.96079         2.89328
H         54.61944        70.71260         3.27699
O         56.80322        59.21248         1.36324
H         56.02976        59.53474         1.87354
O         41.70221        64.93868         2.32613
H         42.64952        65.10927         2.53449
O         65.31975        69.53200         1.90229
H         65.85675        69.11256         2.60688
O         49.90586        45.73174        -2.10645
H         50.65921        45.35729        -2.61030
O         47.89768        37.25085         3.65327
H         47.62361        38.10504         4.05087
O         49.25806        46.23246         1.46154
H         48.62420        46.85786         1.88094
O         46.70501        63.33450         2.47482
H         45.82791        63.53871         2.87817
O         46.39092        69.26037        -1.51053
H         45.84398        68.48582        -1.80079
O         62.43909        70.23860        -2.23683
H         63.16844        70.87056        -2.44798
O         33.99388        60.37961         2.04519
H         33.16940        59.90769         2.29473
O         30.08999        70.88231         2.04706
H         30.17518        71.65048         2.65016
O         61.34858        60.71735        -2.75362
H         60.51356        60.32847        -3.09351
O         47.88207        56.74864         1.59091
H         47.10726        57.10732         2.07089
O         51.66894        47.86347         1.31278
H         50.94563        47.34257         1.73822
O         41.63654        39.79508         3.90625
H         42.51962        39.41468         4.13639
O         38.65665        64.89225         2.19318
H         39.49620        64.67475         2.65832
O         30.33334        58.50499         2.14758
H         29.51369        58.07268         2.47073
H         23.26983        75.10646        -1.91315
H         25.45771        75.31336        -0.77074
H         27.93035        75.35827        -0.28168
H         30.39180        75.32736         0.03185
H         32.82271        75.24507        -0.16595
H         35.43723        75.23519         0.11464
H         37.84689        75.25283         0.53334
H         40.24104        75.28167         0.74826
H         42.69142        75.35195         0.79150
H         45.33784        75.28930         0.80925
H         47.75138        75.26558         0.52110
H         50.23651        75.24940         0.55898
H         52.72294        75.19119         0.53659
H         55.14559        75.15593         0.44042
H         57.37077        75.14347        -0.18596
H         60.22694        75.40271        -0.14951
H         62.54538        75.36315         0.34450
H         65.04116        75.32481         0.42524
H         67.49252        75.26455         0.67041
H         23.80496        69.29252        -1.87078
H         21.45559        71.20149        -2.36623
H         21.43346        73.66577        -2.78692
H         24.42133        65.12422         0.21210
H         23.19606        67.20849         0.34379
H         26.85562        60.90139         0.47744
H         25.64474        62.99868         0.17923
H         29.39012        56.45713         0.56958
H         28.06811        58.68041         0.25023
H         31.77711        52.27019        -0.10468
H         30.59141        54.37266         0.17084
H         34.36372        48.21560         0.39679
H         32.94411        50.17440        -0.64366
H         36.77107        44.16687         1.51769
H         35.60647        46.20699         0.97815
H         39.32100        40.04497         2.74231
H         38.03249        41.95046         2.03692
H         41.74816        35.71110         1.11792
H         40.53444        37.85720         1.63521
H         45.05916        32.40807         0.20698
H         42.94061        33.65680         0.56227
H         47.26096        33.48285         0.62801
H         48.56092        35.41080         1.47214
H         49.87148        37.44311         1.61875
H         51.13354        39.41196         0.89963
H         52.36881        41.49405         0.29605
H         53.61860        43.57696        -0.15928
H         54.87294        45.75187        -0.07909
H         56.12353        47.92277        -0.25962
H         57.32371        50.03106        -0.43020
H         58.58156        52.19612        -0.40367
H         59.79074        54.33855        -0.63250
H         61.00854        56.50041        -0.79300
H         62.23622        58.67950        -0.84842
H         63.46708        60.88033        -0.78894
H         64.63247        62.96274        -0.18405
H         65.83800        65.14036         0.12188
H         66.90381        67.21324         0.76592
H         68.21997        69.36098         0.92142
H         69.53437        71.46827         1.01400
H         69.57880        73.95566         1.02960
