         256
 CSIRO Nanostructure Databank - Neutral Graphene Oxide Data Set
C         30.37350        31.45632         1.14039
C         30.42387        32.66549         0.84691
C         30.39694        35.83202        -0.17282
C         30.36286        37.03358        -0.45522
C         30.31942        40.36237        -0.35388
C         30.23730        41.57159        -0.08556
C         32.85482        29.05133         2.06740
C         31.64131        29.29848         1.72209
C         32.92728        31.79641         2.06028
C         31.09298        30.55789         1.96920
C         32.75375        33.09812         1.36685
C         31.58028        33.52089         0.41103
C         32.70170        35.93293         0.48855
C         31.43259        35.04523         0.49734
C         32.75062        37.30851        -0.05330
C         31.49897        37.95648        -0.56498
C         32.68748        40.10332         0.17522
C         31.44765        39.45825        -0.50838
C         32.67030        41.66358         0.24514
C         31.41655        42.46438        -0.37459
C         32.66737        44.42706         0.29405
C         31.58481        43.84396         0.18087
C         35.42772        27.34762         1.54311
C         35.37874        28.81010         1.74631
C         34.13167        29.57824         1.98882
C         35.30505        31.67822         1.28503
C         34.10421        31.02615         1.90994
C         35.63445        33.06614         1.59104
C         33.74901        34.00722         1.50468
C         35.25754        35.99109         0.80464
C         34.00200        35.14514         0.54380
C         35.19545        37.39080         0.30582
C         33.98837        38.00727        -0.06168
C         35.25378        40.26214         0.03691
C         33.99330        39.51062        -0.41816
C         35.26142        41.67451         0.22405
C         33.97349        42.39911         0.44711
C         35.30341        44.66263         0.48108
C         34.02040        43.92540         0.54511
C         35.44452        46.06093         0.05453
C         37.46007        27.11436         0.14601
C         36.44115        26.78014         1.08448
C         37.58273        28.69513         0.11655
C         36.55170        29.43740         1.00093
C         37.76037        31.62380         0.54626
C         36.48554        30.90503         0.70878
C         37.78677        33.00814         0.51097
C         36.65050        33.77193         0.97913
C         37.90549        36.02373         0.76518
C         36.59455        35.27504         0.99174
C         37.76949        37.35837         0.03654
C         36.46446        38.08436        -0.02331
C         37.70838        40.26229        -0.02001
C         36.47564        39.56682        -0.02150
C         37.68372        41.67405        -0.06852
C         36.47997        42.38999         0.09722
C         37.61882        44.53345        -0.76768
C         36.64765        43.91056         0.27784
C         37.59662        46.01590        -1.10606
C         36.43678        46.60807        -0.42809
C         39.79549        25.26287        -2.39171
C         38.86142        25.73652        -1.55135
C         40.35933        27.73616        -1.06910
C         37.99783        26.30462        -0.80138
C         40.25772        28.48310         0.25081
C         38.97766        29.31357         0.46864
C         40.24665        31.53408         0.09061
C         39.01327        30.81714         0.56784
C         40.35633        33.02167         0.36534
C         39.02775        33.73250         0.10951
C         40.33517        35.95607         0.10161
C         39.02486        35.21801         0.11617
C         40.24588        37.42404        -0.14856
C         39.05561        38.11862        -0.04156
C         40.17751        40.30110         0.05897
C         38.99818        39.56970        -0.04317
C         40.22619        41.74107        -0.08069
C         38.94261        42.36859        -0.46031
C         40.25633        44.53864        -0.98772
C         38.93222        43.79629        -0.89557
C         40.21158        46.04805        -1.06989
C         38.88204        46.76604        -1.25816
C         40.09102        48.68996        -0.58654
C         38.97473        48.16668        -0.77949
C         42.28637        25.57449        -3.08645
C         41.07756        25.72298        -2.36996
C         42.81894        27.28330        -0.99871
C         41.41687        26.60375        -1.09273
C         42.85426        28.64702        -0.31230
C         41.58856        29.30538         0.17939
C         42.81018        31.48111        -0.45826
C         41.50670        30.78057        -0.12378
C         42.73409        32.98742        -0.51328
C         41.58817        33.68491        -0.25106
C         42.80078        35.94993        -0.67848
C         41.60048        35.18725        -0.17403
C         42.81986        37.43412        -0.52952
C         41.49989        38.15391        -0.39509
C         42.70664        40.27985         0.32707
C         41.46545        39.62787        -0.16883
C         42.66215        41.78040         0.40977
C         41.41922        42.43368        -0.07457
C         42.81668        44.58547        -0.36259
C         41.53679        43.82574        -0.56626
C         42.69175        45.99379        -0.93556
C         41.42521        46.73239        -0.40610
C         42.59028        49.02633        -0.34689
C         41.44744        48.28816        -0.45192
C         43.42673        26.08656        -3.08073
C         45.19300        27.72575        -2.02315
C         43.94355        26.90062        -1.96055
C         45.22077        29.04832        -1.25966
C         43.92314        29.65380        -0.74328
C         45.23149        31.58893         0.06895
C         44.05562        30.89404         0.14055
C         45.31719        32.98535        -0.39332
C         44.03702        33.71403        -0.71724
C         45.38296        35.99800        -0.53827
C         44.10454        35.21288        -0.77792
C         45.28712        37.44360        -0.13683
C         44.10728        38.13032        -0.20260
C         45.25175        40.38882         0.33601
C         44.01617        39.56125         0.24605
C         45.23457        41.74978         0.47133
C         43.95667        42.53197         0.46787
C         45.26641        44.68050         0.22950
C         43.97787        43.97569         0.06754
C         45.70292        47.12229        -0.34454
C         45.11901        48.37745        -0.38379
C         43.81439        48.51741        -0.30067
C         47.59059        27.69936        -1.62373
C         46.54487        27.13107        -1.97873
C         47.81471        28.84663        -0.79228
C         46.48520        29.44334        -0.51485
C         47.76937        31.50338         0.33937
C         46.48961        30.83138         0.15717
C         47.94276        32.98275         0.05061
C         46.63728        33.71092        -0.29876
C         47.71698        35.86257         0.59124
C         46.65193        35.22557        -0.26572
C         47.70186        37.35432         0.77569
C         46.62286        38.18202         0.03288
C         47.71786        40.31439         1.00821
C         46.45900        39.57307         0.65194
C         47.74502        41.77076         0.83132
C         46.44155        42.54324         0.98975
C         47.80006        44.67530         0.55982
C         46.45223        44.01415         0.50199
C         47.78858        46.00997         0.01097
C         47.06335        46.76639        -0.63601
C         50.31454        28.96952        -0.31571
C         48.94662        29.40335        -0.22006
C         50.15043        31.38265         0.96370
C         48.92574        30.73948         0.38528
C         49.99244        32.81645         1.57847
C         48.93785        33.70977         0.92380
C         50.24651        35.85278         0.96242
C         48.94856        35.07123         0.93029
C         50.16524        37.34784         1.28246
C         49.00535        38.04474         1.10615
C         50.29953        40.23745         0.82965
C         49.00625        39.54508         1.13707
C         50.27924        41.60269         0.19917
C         48.98615        42.38683         0.34656
C         50.36170        44.37083        -0.06559
C         49.07053        43.89032         0.45283
C         51.40567        29.52544        -0.11002
C         52.60031        31.66909         0.94435
C         51.53730        30.67683         0.79000
C         52.48254        32.71559         1.60430
C         51.34438        33.60837         1.79416
C         52.57598        35.93954         1.45912
C         51.40085        35.08338         1.63718
C         52.62165        37.15181         1.24719
C         51.50172        38.11741         1.55892
C         52.56006        40.19022         0.35104
C         51.55194        39.39605         0.75876
C         52.69665        41.42952        -0.04139
C         51.64065        42.29337        -0.02879
C         51.38148        43.68108        -0.22274
O         31.89461        31.34099         2.90704
O         44.12294        34.41338        -1.99223
O         49.79286        40.19102         2.19836
O         38.85967        42.73808        -1.89149
O         43.83121        26.30221        -0.63108
O         37.15852        45.02273        -2.05677
O         47.15509        36.49063         1.81028
O         34.75062        33.72301         2.45199
O         41.12367        43.95482        -1.98788
O         42.57302        28.81497         1.11525
O         43.24782        30.62750        -1.69710
O         51.24339        34.49375         2.93127
O         37.05543        37.39987        -1.23255
O         48.63173        44.40828         1.71911
O         41.25752        35.63380         1.20586
O         40.58100        31.07186        -1.23958
O         46.42522        35.82595        -1.57227
O         39.88169        28.21295        -2.08548
O         35.88426        35.86868         2.12608
O         38.81659        34.49574        -1.12672
O         35.42405        31.37266        -0.15851
O         49.41159        41.77459        -0.96052
O         34.71001        44.35614         1.75702
O         45.01070        46.07347         0.20973
O         42.70683        36.78554        -1.86006
O         36.58434        29.23660         2.44173
O         39.75414        46.50274        -2.37114
O         45.23386        28.98779        -2.71632
O         43.23940        39.63493         1.51615
O         46.79043        39.76490         2.05338
O         39.09716        29.96975         1.76528
O         43.15034        42.30618         1.68382
O         46.20696        33.11550        -1.55841
O         33.09921        42.00937         1.57984
O         50.76414        30.50046         1.98451
O         43.41728        46.42772        -1.79870
O         46.28394        29.60287         0.91391
O         41.46937        39.10486        -1.53147
O         31.64223        38.78221        -1.74958
O         31.86755        35.69775         1.69415
O         51.53267        38.41809         2.93977
H         52.25972        39.04648         3.12507
O         40.56789        33.09393         1.79862
H         40.73567        34.04062         2.03663
O         47.12712        38.43685        -1.29953
H         46.97788        37.62219        -1.84153
O         41.30559        46.36593         0.99030
H         41.88127        46.95295         1.52569
O         37.38514        44.07028         1.51414
H         36.73608        44.03939         2.25382
O         49.45469        32.59159         2.89148
H         49.97468        31.86865         3.30983
O         50.64921        35.83265        -0.44586
H         49.94739        36.24255        -0.99383
O         48.70166        33.00039        -1.21199
H         48.05884        32.84307        -1.94369
O         31.62582        42.50892        -1.75900
H         30.85330        42.91530        -2.20240
O         46.18989        42.65097         2.42211
H         46.23403        41.74111         2.79822
O         41.28139        25.76049         0.03034
H         42.15044        25.33551         0.20139
O         31.88698        33.23516        -0.93921
H         31.98665        32.26888        -1.06186
O         38.43296        36.34507         2.07522
H         37.66641        36.44163         2.68766
O         33.98199        39.70361        -1.84050
H         34.77048        39.27210        -2.23091
O         34.21516        34.53189        -0.75375
H         34.25381        35.22940        -1.44178
O         40.31601        27.59341         1.35452
H         40.27580        28.12825         2.17656
O         37.30456        29.09318        -1.22379
H         38.04730        28.81119        -1.81261
O         32.60201        39.60828         1.51877
H         32.83160        40.34484         2.13699
