         480
 CSIRO Nanostructure Databank - Neutral Graphene Oxide Data Set
C         37.80627        50.43438         0.44356
C         36.62321        51.15292         0.36095
C         37.80980        53.18090         0.94495
C         36.62093        52.53035         0.62771
C         40.36007        48.95939         0.61904
C         40.24202        50.31488         0.95673
C         39.02676        51.06708         0.79511
C         40.29760        53.17900         1.24243
C         39.02953        52.48076         1.02159
C         40.36247        54.61706         1.18117
C         42.71808        48.85445         1.34178
C         41.52519        48.23234         0.84626
C         42.68198        50.21720         1.59326
C         41.37642        50.96740         1.70116
C         42.74451        53.15064         1.54246
C         41.47111        52.46463         1.45592
C         42.78915        54.61629         1.51056
C         41.53489        55.29801         1.34524
C         45.17837        45.94781         1.45931
C         43.98423        46.66921         1.35397
C         45.19119        48.72270         1.76064
C         43.96281        48.06706         1.49637
C         45.19414        50.18249         1.96792
C         43.87936        50.96108         2.10033
C         45.23837        53.08315         1.53288
C         43.91516        52.40923         1.60779
C         45.28125        54.59012         1.63196
C         43.99621        55.31899         1.66230
C         45.24895        57.43236         2.04594
C         44.08444        56.75573         1.82420
C         47.70639        44.39097         1.47006
C         47.72543        45.86264         1.78875
C         46.40890        46.59981         1.58347
C         47.68909        48.72735         1.46512
C         46.42312        48.01653         1.67622
C         47.65339        50.09900         1.22062
C         46.45515        50.88406         1.53180
C         47.48254        52.78516         0.29609
C         46.21317        52.16884         0.77126
C         47.56330        54.99242         0.65515
C         46.50605        55.41743         1.39404
C         47.90898        57.49152         1.80840
C         46.57059        56.76651         2.00659
C         47.99372        58.94805         1.61669
C         49.86047        44.45764         0.18431
C         48.69844        43.75051         0.84108
C         50.02999        45.86908         0.70250
C         48.90397        46.58841         1.15894
C         50.19074        48.75847         1.00310
C         48.90014        47.99241         1.19383
C         50.02196        50.06527         0.26160
C         48.76438        50.78700         0.54109
C         49.93366        53.07470         0.03576
C         48.71652        52.25448         0.38076
C         50.07984        54.40592         0.83177
C         48.93649        55.45833         0.79176
C         50.42112        57.41964         1.44525
C         49.08542        56.71389         1.30607
C         50.33227        58.80772         0.83464
C         49.10795        59.52633         1.08474
C         52.34921        41.56752        -0.22927
C         51.16313        42.27677        -0.04404
C         52.40133        44.34841         0.13821
C         51.15604        43.66580         0.14344
C         52.44411        45.80500         0.15606
C         51.26796        46.54216         0.42305
C         52.46148        48.65970        -0.01789
C         51.33054        47.96603         0.43506
C         52.41189        50.10787        -0.23285
C         51.24677        50.82326        -0.11071
C         52.48779        53.03073        -0.27530
C         51.18900        52.30770        -0.28525
C         52.58852        54.37153         0.03851
C         51.45439        55.08693         0.69117
C         52.75445        57.27624         0.33162
C         51.59045        56.57459         0.93110
C         52.71379        58.66502         0.11624
C         51.47576        59.41296         0.30688
C         52.61183        61.43657        -0.49108
C         51.47549        60.79723        -0.08502
C         54.88098        40.16193        -0.91856
C         54.85207        41.47488        -0.38379
C         53.61032        42.21487        -0.19816
C         54.90221        44.38155         0.22810
C         53.60391        43.62077         0.01764
C         54.86362        45.79514        -0.28946
C         53.65767        46.51173        -0.13301
C         54.88820        48.59841        -0.63606
C         53.65899        47.93280        -0.30708
C         54.90662        50.04483        -0.78720
C         53.62267        50.76123        -0.76928
C         54.95897        52.94302        -0.77192
C         53.64856        52.29506        -0.79456
C         54.99298        54.32373        -0.48514
C         53.85037        55.06868        -0.10319
C         55.10713        57.22045        -0.32768
C         53.91953        56.51463         0.00256
C         55.11545        58.62758        -0.50122
C         53.89227        59.35482        -0.33754
C         55.07629        61.44754        -0.93142
C         53.86932        60.75346        -0.58767
C         55.09478        62.85680        -1.13560
C         57.33340        39.82423        -0.57042
C         56.00147        39.35336        -0.98332
C         57.41953        41.31371        -0.26565
C         56.13337        42.13667         0.06848
C         56.91716        44.27404        -1.17429
C         56.04449        43.59574        -0.34834
C         57.18685        45.66752        -1.07565
C         56.06170        46.45212        -0.66906
C         57.40325        48.56148        -0.98337
C         56.07020        47.86965        -0.81202
C         57.27600        49.96099        -1.60780
C         56.08126        50.72650        -1.05852
C         57.38968        52.79602        -1.23001
C         56.13654        52.16627        -1.03876
C         57.38703        54.26467        -1.28584
C         56.29940        54.98978        -0.56872
C         57.56691        57.18547        -0.99715
C         56.36975        56.48629        -0.48471
C         57.54886        58.60067        -1.07772
C         56.32440        59.32138        -0.86205
C         57.51998        61.43581        -1.38905
C         56.30790        60.73057        -1.05814
C         57.50131        62.84577        -1.56432
C         56.25870        63.52743        -1.43228
C         59.91042        36.98272        -0.69998
C         58.71551        37.64697        -0.87130
C         59.89535        39.74111        -0.33478
C         58.63086        39.14759        -1.06365
C         59.92620        41.24986        -0.47900
C         58.73087        41.93529        -0.60676
C         59.91059        44.02474        -1.31923
C         58.81639        43.18565        -1.29233
C         59.72985        45.44670        -1.88541
C         58.60500        46.27513        -1.15186
C         59.79512        48.50126        -1.72175
C         58.47227        47.72882        -1.74286
C         59.82127        49.90430        -1.59636
C         58.60759        50.67537        -1.50001
C         59.86803        52.81744        -1.52264
C         58.61498        52.08351        -1.43877
C         59.90486        54.21840        -1.56119
C         58.66207        55.00092        -1.53040
C         59.94241        57.12830        -1.59678
C         58.72699        56.45927        -1.29419
C         59.92448        58.54096        -1.67986
C         58.75013        59.28106        -1.44186
C         59.95679        61.43043        -1.78922
C         58.75301        60.72621        -1.54796
C         59.96701        62.86005        -1.91640
C         58.72535        63.56179        -1.84838
C         59.92586        65.64211        -2.22568
C         58.73487        64.95996        -2.05944
C         62.51638        35.51271        -0.39589
C         62.43601        36.93963        -0.43312
C         61.18917        37.61768        -0.64959
C         62.36879        39.84498        -0.35884
C         61.17939        39.10224        -0.91736
C         62.36592        41.29076        -0.65982
C         61.15264        41.97522        -0.70033
C         62.37031        44.10033        -1.05624
C         61.15288        43.39997        -0.98171
C         62.36361        45.51995        -1.46819
C         61.07526        46.21835        -1.85090
C         62.35544        48.49021        -1.64628
C         61.04861        47.74624        -1.90543
C         62.32209        49.95259        -1.38363
C         61.08507        50.63631        -1.48985
C         62.33753        52.75056        -1.40971
C         61.10080        52.05831        -1.47706
C         62.38257        54.18769        -1.72575
C         61.12746        54.96051        -1.67684
C         62.46202        57.05928        -2.08202
C         61.15229        56.34843        -1.77248
C         62.39162        58.51223        -1.59580
C         61.15962        59.22471        -2.20219
C         62.39020        61.33985        -2.23384
C         61.19052        60.71483        -1.96445
C         62.48772        62.82313        -2.25148
C         61.19185        63.57045        -2.12284
C         62.47682        65.76537        -2.21725
C         61.16844        64.97364        -2.21212
C         62.34018        67.18937        -1.72366
C         64.93332        35.57222         0.01657
C         63.71320        34.86552        -0.18607
C         64.89991        36.99644        -0.01475
C         63.66409        37.65075        -0.24599
C         64.91966        39.85184        -0.18551
C         63.65038        39.11885        -0.14729
C         64.94737        41.23930        -0.64503
C         63.61582        41.98260        -0.90948
C         64.83699        44.15755        -0.79908
C         63.61799        43.44697        -0.90746
C         64.77562        45.61182        -0.80757
C         63.58712        46.27035        -1.10813
C         64.71110        48.49432        -0.60459
C         63.49153        47.73439        -1.02238
C         64.85807        49.92927        -1.10610
C         63.52238        50.65241        -1.15097
C         64.77409        52.80776        -0.83193
C         63.54411        52.06717        -1.15358
C         64.83985        54.21785        -0.97158
C         63.69892        54.93162        -1.54072
C         64.86506        57.08892        -1.25741
C         63.68933        56.39261        -1.50228
C         64.96283        58.52342        -1.67076
C         63.67622        59.22735        -1.92682
C         65.36930        61.60219        -1.85958
C         63.56391        60.49754        -2.42592
C         65.05087        62.93714        -1.47206
C         63.77610        63.59427        -1.90375
C         64.65875        65.77714        -0.84553
C         63.45725        64.97249        -1.29973
C         64.59384        67.13596        -0.73404
C         63.36783        67.82324        -1.12868
C         67.40493        32.86625         0.80491
C         66.22791        33.48391         0.43263
C         67.38694        35.63535         0.42805
C         66.17736        34.88972         0.27698
C         67.31891        37.06985         0.46582
C         66.11458        37.74790         0.25883
C         67.29168        39.99447         0.29782
C         66.09891        39.20773         0.17086
C         67.30938        41.38640         0.04596
C         66.12573        42.06232        -0.38217
C         67.27718        44.23149        -0.29720
C         66.06593        43.47160        -0.51695
C         67.23150        45.66015        -0.32700
C         65.99315        46.35260        -0.50585
C         67.12218        48.47454         0.01714
C         65.96665        47.75011        -0.38149
C         66.95498        49.89813         0.43954
C         65.80056        50.66419        -0.12665
C         67.05665        52.83750         0.10967
C         65.87242        52.13326        -0.26582
C         67.09340        54.26498        -0.00704
C         65.96889        54.97154        -0.54904
C         67.16857        57.15109        -0.27635
C         66.01312        56.40006        -0.71916
C         67.24314        58.53846        -0.44779
C         66.25472        59.29027        -1.26201
C         67.19398        61.45784        -0.30499
C         66.26011        60.78474        -1.15148
C         67.12149        62.88392        -0.17355
C         65.97164        63.59275        -0.65834
C         66.97459        65.76625         0.22953
C         65.79179        65.01142        -0.28209
C         66.95929        67.24047         0.23844
C         65.80121        67.99073        -0.36864
C         66.51561        69.85418         1.12128
C         65.51674        69.22912         0.44086
C         69.58573        31.84931         2.42863
C         69.77616        32.80580         1.41284
C         68.62150        33.58092         0.91163
C         69.88374        35.75112         0.55992
C         68.63942        34.96439         0.62254
C         69.84473        37.15942         0.75328
C         68.53169        37.81764         0.87425
C         69.77504        40.08784         0.75060
C         68.50443        39.34417         0.79800
C         69.72258        41.50795         0.58645
C         68.53252        42.14404         0.21285
C         69.71811        44.32845        -0.01573
C         68.49959        43.57605        -0.02521
C         69.68733        45.71696        -0.06818
C         68.42767        46.40544        -0.11776
C         69.54503        48.53095         0.59882
C         68.34718        47.81288         0.09905
C         69.43992        49.95967         1.03879
C         68.09901        50.69237         1.08723
C         69.34769        52.84128         0.97694
C         68.19547        52.13189         0.60660
C         69.30358        54.26558         1.03105
C         68.20341        54.99342         0.51847
C         69.27625        57.15580         1.05140
C         68.22822        56.44136         0.44965
C         69.40141        58.57938         0.90573
C         68.50350        59.29219        -0.07625
C         69.28117        61.45683         0.94951
C         68.28774        60.75244         0.28259
C         69.28693        62.89120         0.97074
C         68.20526        63.59009         0.40880
C         69.32069        65.75139         1.08171
C         68.31901        65.07543         0.18937
C         69.27863        67.22280         1.14789
C         68.00382        67.93042         0.84721
C         68.86657        69.98711         2.00724
C         67.83497        69.28933         1.26039
C         68.69829        71.34570         2.37456
C         71.91044        31.17544         2.29452
C         70.64259        31.05271         2.87115
C         72.12971        32.12008         1.28981
C         71.06758        32.93001         0.87381
C         72.31645        35.94071         0.26229
C         71.13975        35.17730         0.25731
C         72.27030        37.29471         0.55172
C         71.03270        37.94611         0.76992
C         72.20757        40.18182         0.95686
C         70.98707        39.39929         0.86593
C         72.20534        41.53170         0.95548
C         70.94387        42.35074         0.89905
C         72.23851        44.41075         0.14159
C         71.02172        43.54675        -0.07316
C         72.21154        45.74890         0.08520
C         70.95198        46.50260        -0.08787
C         72.04738        48.74776         0.74688
C         70.89035        47.98140         0.23783
C         71.93092        50.03163         1.17443
C         70.68105        50.76222         1.16120
C         71.72214        52.93050         1.75325
C         70.58980        52.14064         1.31171
C         71.58909        54.23555         2.08377
C         70.32120        54.94222         1.84137
C         71.40182        57.23110         2.42131
C         70.24700        56.47543         1.92921
C         71.43170        58.57867         2.28693
C         70.40440        59.27490         1.56078
C         71.66574        61.50196         1.65845
C         70.35247        60.76849         1.75104
C         71.65407        62.86572         1.66694
C         70.43781        63.60065         1.46936
C         71.33346        65.72548         2.48173
C         70.37753        65.03718         1.62984
C         71.27200        67.06013         2.71205
C         70.33103        67.92886         1.98228
C         70.99459        70.01013         3.21165
C         70.05583        69.32284         2.43085
C         70.79385        71.34229         3.57691
C         69.64412        72.01148         3.14466
O         69.44545        48.85033         2.03160
O         57.70120        43.52351        -2.04330
O         66.00463        65.21296         1.18492
O         70.99823        47.52838        -1.14965
O         61.93347        48.19893        -2.99709
O         56.71524        55.62500         0.68362
O         61.94046        45.67864        -2.89985
O         64.70166        61.09718        -2.97501
O         65.71232        50.11166         1.20786
O         65.45025        49.92265        -2.35939
O         66.04947        58.75308        -2.61226
O         47.31364        54.02184        -0.32121
O         57.50110        40.29183         0.80521
O         47.45914        57.01470         3.13368
O         45.59212        53.69357         2.80609
O         53.37331        51.50925        -2.00513
O         57.69732        54.74112        -2.64587
O         69.69864        55.61460         2.99051
O         46.12553        50.75721         2.95170
O         71.29425        33.84696        -0.16462
O         70.45827        67.85079         0.51593
O         51.95343        55.60313         1.98404
O         63.24584        54.45323        -2.89258
O         62.76819        39.55399         1.01114
O         63.66817        48.23885         0.37350
O         50.31942        52.93750        -1.34490
O         49.01744        50.09620        -0.79082
O         64.39400        41.37803        -2.01205
O         68.32516        38.62401         2.08014
O         63.38599        63.37774        -3.28265
O         62.73860        64.64763        -0.06880
H         62.70804        65.45394         0.48828
O         70.74914        42.93129         2.22120
H         70.63819        42.19631         2.86011
O         47.97005        45.93131         3.23424
H         47.88175        46.86978         3.50610
O         58.65776        39.44287        -2.47530
H         59.53815        39.15600        -2.82609
O         69.28650        59.32528        -1.32764
H         68.67426        59.55969        -2.05864
O         59.08206        46.35191         0.20561
H         58.62399        47.10643         0.65419
O         68.78616        65.26818        -1.18941
H         69.73340        65.01717        -1.22582
O         55.01370        44.54533         1.67936
H         55.31744        43.67180         2.03485
O         50.65675        57.66317         2.85606
H         51.09489        56.86124         3.22007
O         45.46719        51.75837        -0.42030
H         45.70234        52.36631        -1.15391
O         59.90470        39.33995         1.04021
H         59.10677        39.72342         1.47289
O         61.26567        39.26982        -2.36412
H         61.61028        40.17055        -2.55368
O         59.37823        45.32406        -3.27674
H         60.21906        45.15477        -3.76346
O         57.91586        48.75693         0.37186
H         57.21765        49.19351         0.90479
O         66.27311        68.48416        -1.68187
H         67.09946        68.98958        -1.52473
O         58.03400        47.60025        -3.09706
H         58.53926        46.86396        -3.52447
O         62.22700        58.43350        -0.15822
H         62.11848        59.34179         0.19288
O         50.61410        49.17045         2.35504
H         50.79979        48.35635         2.86989
O         71.13344        42.97875        -1.40435
H         71.15072        43.71683        -2.04897
O         49.99841        53.90886         2.19098
H         50.46682        54.55458         2.76981
O         61.13007        59.12662        -3.64686
H         61.49497        58.25021        -3.92349
O         56.10057        42.18541         1.53817
H         56.32811        41.27907         1.85325
O         49.47952        44.62424        -1.22944
H         48.70721        45.22797        -1.26102
O         62.65976        57.02105        -3.52353
H         62.85975        56.07587        -3.74951
O         43.67362        51.12185         3.54672
H         44.53309        51.44794         3.90772
O         56.97285        49.83509        -3.01765
H         56.87082        50.73599        -3.38901
O         40.99884        50.85344         3.13228
H         41.82167        51.03980         3.64968
O         67.78773        50.83840         2.49469
H         67.95096        49.96366         2.91352
O         69.93455        60.91263         3.16328
H         69.86486        61.87453         3.34564
O         62.97778        65.91650        -3.55689
H         63.10047        65.01459        -3.94033
H         37.78415        49.35091         0.26414
H         35.68570        50.64109         0.10359
H         37.77774        54.25997         1.14643
H         35.68149        53.09813         0.58122
H         39.51221        48.43764         0.15235
H         39.44352        55.19223         1.00651
H         41.53372        47.16649         0.58376
H         41.52049        56.39542         1.30152
H         45.14058        44.85180         1.39163
H         43.05232        46.11268         1.18857
H         45.21035        58.50647         2.27952
H         43.14724        57.32978         1.86457
H         46.88033        43.80310         1.89980
H         47.12023        59.56716         1.86601
H         48.61653        42.66214         0.69722
H         49.07796        60.60661         0.88438
H         52.29604        40.47923        -0.36870
H         50.21484        41.72217        -0.07330
H         52.54863        62.50217        -0.74716
H         50.54371        61.37433        -0.02688
H         53.93640        39.73725        -1.29181
H         54.16817        63.43784        -1.04271
H         55.92320        38.36696        -1.46216
H         56.21296        64.61632        -1.56373
H         59.86412        35.88991        -0.57139
H         57.78573        37.05804        -0.90940
H         59.88993        66.73052        -2.36326
H         57.79702        65.52996        -2.07167
H         61.60904        34.91283        -0.54953
H         61.46550        67.77836        -2.03414
H         63.71311        33.76741        -0.17705
H         63.28277        68.89872        -0.91811
H         67.40868        31.78264         0.98700
H         65.32225        32.87508         0.31719
H         66.28719        70.80200         1.62851
H         64.53108        69.71100         0.37517
H         68.59406        31.73746         2.88931
H         67.81354        71.90073         2.03585
H         72.73443        30.53263         2.63321
H         70.47257        30.31789         3.66958
H         73.11681        32.22899         0.82228
H         73.27113        35.45354         0.02571
H         73.20823        37.86317         0.54581
H         73.17015        39.66279         1.06179
H         73.15747        42.06511         1.09115
H         73.20920        43.90292         0.24321
H         73.14967        46.31902         0.15504
H         73.04312        48.28340         0.71197
H         72.84602        50.55934         1.47867
H         72.68284        52.43053         1.93633
H         72.43335        54.77664         2.53193
H         72.15910        56.71396         3.02535
H         72.23926        59.15884         2.75389
H         72.61488        60.95683         1.75802
H         72.59878        63.42255         1.75668
H         72.06683        65.11830         3.03185
H         71.93263        67.50522         3.46994
H         71.91578        69.50406         3.53200
H         71.54482        71.86465         4.18490
H         69.48823        73.06611         3.41046
