         671
 CSIRO Nanostructure Databank - Neutral Graphene Oxide Data Set
C          5.89504        31.83589         0.44445
C          5.89381        33.09363         0.96125
C          8.40755        27.88719        -1.12199
C          8.39570        29.18546        -0.67013
C          7.15584        29.84683        -0.33441
C          8.37587        31.80310         0.48811
C          7.12984        31.12812         0.17729
C          8.35843        33.02269         1.16122
C          7.12519        33.75789         1.35865
C          8.28212        35.77846         2.45787
C          7.10954        35.05384         1.82811
C          8.38210        37.23566         2.07773
C         10.98564        23.59276        -1.36659
C         10.89122        25.02482        -1.48349
C          9.74114        25.73351        -1.24616
C         10.90750        27.96849        -1.29321
C          9.64546        27.20123        -1.62821
C         10.87889        29.29700        -0.96367
C          9.63524        29.95469        -0.55467
C         10.81648        32.13065         0.04882
C          9.62074        31.19624         0.06151
C         10.88103        33.08303         1.21606
C          9.61235        33.58874         1.69526
C         10.86335        35.75265         2.21238
C          9.60223        35.03747         2.29115
C         10.88402        37.19981         1.78916
C          9.56322        37.91697         1.94105
C         10.79264        40.05875         1.73099
C          9.60053        39.32956         1.70248
C         10.82401        41.41621         1.37907
C         13.39258        19.32686        -1.17872
C         13.38498        20.70752        -1.52629
C         12.19797        21.45972        -1.47587
C         13.35652        23.56394        -2.16763
C         12.13391        22.87000        -1.67531
C         13.37913        25.07283        -2.20485
C         12.11380        25.79839        -1.86835
C         13.44666        27.96417        -1.58341
C         12.19792        27.17643        -1.22509
C         13.45757        29.38035        -1.12270
C         12.14457        30.06796        -0.86515
C         13.37424        31.79293         0.51434
C         12.13724        31.42450        -0.24737
C         13.35328        33.01219         1.39344
C         12.05821        33.70642         1.60244
C         13.34558        35.72790         2.38938
C         12.05450        35.03632         2.13065
C         13.33950        37.26554         2.50549
C         12.08288        37.95821         2.26732
C         13.32992        40.11949         1.91506
C         12.03813        39.45106         2.34373
C         13.29958        41.50781         1.64682
C         12.02898        42.17253         1.39158
C         13.22471        44.31611         1.12093
C         12.02817        43.52895         1.07710
C         13.16013        45.68135         0.94754
C         15.79667        15.10405        -0.31367
C         15.78581        16.42025        -0.74992
C         14.60990        17.22541        -0.73643
C         15.80139        19.17358        -1.82461
C         14.56764        18.55203        -1.19546
C         15.84366        20.67307        -1.65255
C         14.67129        21.38014        -1.70685
C         15.90980        23.60661        -1.86973
C         14.66264        22.83051        -2.04926
C         15.94861        24.97138        -1.82761
C         14.72426        25.77266        -2.08050
C         15.96334        27.83606        -1.09789
C         14.75194        27.22484        -1.70331
C         15.92522        29.17040        -0.63487
C         14.70476        29.96432        -0.56522
C         15.84261        31.58843         0.98330
C         14.66146        31.14734         0.14614
C         15.86408        33.08179         1.32718
C         14.62485        33.74004         1.64293
C         15.89153        35.79871         2.43455
C         14.61316        35.05886         2.06283
C         15.79820        37.28650         2.12199
C         14.62169        37.98133         2.23859
C         15.76793        40.16661         1.85288
C         14.55925        39.43079         1.99641
C         15.73995        41.55044         1.68142
C         14.51116        42.25149         1.56262
C         15.68063        44.47397         1.49006
C         14.50177        43.68287         1.38652
C         15.65860        45.87770         1.37414
C         14.31467        46.60261         1.18685
C         15.11543        48.75780         0.23290
C         14.36105        47.63490         0.06464
C         15.38904        49.84120        -0.66434
C         18.08495        10.71117         0.33355
C         18.18011        12.21235         0.52810
C         16.93799        12.98840         0.18119
C         18.27002        14.86430        -0.69552
C         16.98939        14.28022        -0.29198
C         18.32614        16.37082        -0.83844
C         17.03153        16.95671        -1.43894
C         18.40590        19.18906        -1.45041
C         17.07468        18.48275        -1.36853
C         18.43511        20.63635        -1.71358
C         17.15162        21.35993        -1.53692
C         18.40939        23.56068        -2.07179
C         17.16142        22.84915        -1.61274
C         18.38226        24.96242        -1.47428
C         17.19891        25.67050        -1.46970
C         18.37017        27.71215        -0.63170
C         17.16092        27.07141        -1.04505
C         18.37951        29.06049        -0.27280
C         17.14394        29.78323        -0.17358
C         18.36512        31.60452         1.06392
C         17.12970        31.03660         0.43821
C         18.21370        33.11969         0.74836
C         17.06388        33.79798         1.42160
C         18.38661        35.85360         2.00323
C         17.15849        35.14539         1.89069
C         18.35761        37.30908         1.94902
C         17.04246        38.00511         1.62145
C         18.30496        40.16660         1.62288
C         17.06930        39.44995         2.13051
C         18.28314        41.62233         1.35920
C         16.98355        42.33722         1.45484
C         18.24053        44.53125         1.65556
C         16.95635        43.77311         1.93301
C         18.18344        45.90722         1.56045
C         16.90085        46.61253         1.45248
C         18.17844        48.74846         1.11195
C         16.96726        48.01419         1.36457
C         18.14570        50.11631         0.83976
C         16.36764        50.79925        -0.38864
C         18.06929        52.53541        -1.10822
C         16.87765        51.76808        -1.26910
C         18.19897        53.63820        -1.95706
C         20.35741         6.32703         0.34967
C         20.37446         7.72770         0.45254
C         19.21465         8.51054         0.35223
C         20.55353        10.66539         0.57035
C         19.22144         9.94448         0.40769
C         20.55224        11.99698        -0.13821
C         19.42470        12.75550        -0.15002
C         20.73575        14.74733        -0.90590
C         19.43257        14.13038        -0.64114
C         20.80407        16.16919        -1.19009
C         19.54803        16.88833        -1.61295
C         20.86531        19.05759        -1.80317
C         19.66005        18.41371        -1.57375
C         20.91738        20.54438        -1.79400
C         19.65239        21.31540        -1.75831
C         20.85640        23.49674        -1.64295
C         19.66807        22.76853        -1.78988
C         20.87127        24.89899        -1.44634
C         19.62023        25.43451        -0.75745
C         20.93905        27.67964        -0.44049
C         19.62974        26.93409        -0.47151
C         20.93524        29.17687        -0.52395
C         19.64621        29.83334        -0.17321
C         20.86536        31.72759         0.95659
C         19.67958        31.10681         0.55245
C         20.90178        33.05120         1.60197
C         19.86367        33.77535         2.22611
C         20.86588        35.96866         1.85057
C         19.69467        35.22094         1.99426
C         20.84558        37.42627         2.22741
C         19.51744        38.06313         1.90861
C         20.72683        40.20800         1.13015
C         19.48760        39.49037         1.62191
C         20.76465        41.69016         1.49641
C         19.54140        42.38976         1.52595
C         20.74340        44.49990         1.59240
C         19.50864        43.80653         1.63668
C         20.77538        45.95627         1.70629
C         19.43123        46.70860         1.67294
C         20.64948        48.82899         1.04860
C         19.45734        48.10575         1.23496
C         20.64666        50.20813         0.71447
C         19.34682        50.90941         0.60435
C         20.54800        52.85004        -0.58534
C         19.24764        52.21709        -0.23244
C         20.56063        54.01451        -1.32457
C         19.35472        54.46537        -2.00669
C         20.50270        56.51849        -2.75724
C         19.35522        55.65561        -2.72138
C         20.44973        57.74665        -3.38012
C         22.69882         3.39476         0.17216
C         21.51394         4.14475         0.25094
C         22.84042         6.20677         0.32899
C         21.55303         5.55071         0.33271
C         22.91955         7.60953         0.39624
C         21.69256         8.41493         0.74544
C         23.03621        10.48781         0.16056
C         21.70764         9.77903         0.05683
C         23.09159        11.84487        -0.18105
C         21.83482        12.48970        -0.75377
C         23.20407        14.56545        -1.08869
C         21.88552        13.98969        -0.79644
C         23.26283        16.03360        -1.39810
C         22.00628        16.81637        -1.35742
C         23.36641        18.66245        -1.99973
C         22.08201        18.21636        -1.73679
C         23.43315        20.79444        -1.89046
C         22.08479        21.29310        -1.70402
C         23.41273        23.33492        -1.43043
C         22.03545        22.69446        -1.15300
C         23.43759        24.83492        -1.25094
C         22.12540        25.64887        -1.30930
C         23.48703        27.74729        -0.75666
C         22.17736        26.99551        -0.77212
C         23.43391        29.07168        -0.02957
C         22.24868        29.95222        -0.35286
C         23.34522        31.76959         0.90447
C         22.13764        31.15127         0.56576
C         23.35752        33.15985         1.26570
C         22.04926        33.89678         1.07193
C         23.30993        35.99662         1.63190
C         22.09452        35.30145         1.61789
C         23.32176        37.43338         1.68502
C         22.06186        38.17041         1.73431
C         23.27347        40.27514         1.11131
C         22.01961        39.49186         1.42537
C         23.26682        41.62761         1.82556
C         21.98454        42.38565         1.55826
C         23.21715        44.55214         1.44506
C         21.99162        43.81041         1.52786
C         23.19444        45.95730         1.25463
C         21.99499        46.66812         1.34748
C         23.03924        48.69506         0.35832
C         22.00020        48.18539         1.35603
C         23.05990        50.20832         0.25705
C         21.85965        50.90186         0.37658
C         23.05397        52.98648        -0.43346
C         21.79433        52.41094         0.17999
C         23.00370        54.24862        -1.02608
C         21.76687        54.81661        -1.46200
C         22.91471        56.86949        -2.26132
C         21.73108        56.06233        -2.12014
C         22.89701        58.06741        -2.94553
C         21.58449        58.72109        -3.30879
C         22.88698        60.20809        -4.81277
C         21.69456        59.62831        -4.50313
C         23.94122         4.01149         0.15580
C         25.29303         6.09024         0.22238
C         24.04656         5.43280         0.22448
C         25.37833         7.50132         0.27081
C         24.16222         8.26784         0.33072
C         25.48720        10.34370         0.32540
C         24.24046         9.71049         0.31906
C         25.53739        11.84744         0.43679
C         24.33299        12.53334        -0.18093
C         25.65472        14.58241        -0.61843
C         24.43196        13.88351        -0.60848
C         25.71781        15.99939        -0.87659
C         24.55199        16.71687        -1.22180
C         25.78001        18.85966        -1.22185
C         24.59027        18.10010        -1.45769
C         25.74173        20.34072        -0.81612
C         24.54034        21.18888        -1.18654
C         25.84740        23.28787        -0.72522
C         24.50087        22.59193        -0.61400
C         25.85923        24.67881        -0.52750
C         24.56968        25.40831        -0.45606
C         25.88107        27.50822         0.07003
C         24.58054        26.86231        -0.18435
C         25.80692        28.82611         0.80008
C         24.56872        29.63506         0.47540
C         25.80303        31.70966         1.02071
C         24.59454        31.05038         0.81665
C         25.81790        33.11674         1.36037
C         24.54653        33.81434         1.52118
C         25.76696        35.94329         1.72357
C         24.57066        35.26967         1.63113
C         25.80351        37.37191         1.27004
C         24.52240        38.11690         1.51416
C         25.74917        40.23885         1.40440
C         24.55055        39.53388         1.40259
C         25.72201        41.69514         1.35155
C         24.53849        42.38641         1.50808
C         25.73191        44.54674         1.11544
C         24.53718        43.87395         1.74788
C         25.70009        45.91018         0.83426
C         24.50153        46.73717         1.25185
C         25.48911        48.68241        -0.04309
C         24.40012        48.07076         0.53797
C         25.43758        50.07840        -0.42627
C         24.28023        50.84394        -0.17250
C         25.51808        52.93499        -0.70082
C         24.28731        52.26514        -0.40981
C         25.50497        54.44493        -0.70625
C         24.27545        54.90606        -1.50799
C         25.44387        57.04070        -2.06758
C         24.16359        56.43076        -1.53362
C         25.37855        58.21856        -2.80676
C         24.13361        58.76321        -3.25944
C         24.09894        59.83901        -4.14780
C         26.62641         8.17762         0.28515
C         27.98381        10.23891         0.33929
C         26.71154         9.58718         0.32419
C         28.10866        11.64939         0.24524
C         26.84820        12.38068        -0.10085
C         28.26059        14.50879        -0.51234
C         26.91151        13.80242        -0.53097
C         28.10175        15.99233        -0.22589
C         26.93296        16.72945        -0.78076
C         28.33441        18.80517        -0.93428
C         26.95881        18.13605        -0.91361
C         28.33456        20.33485        -0.93076
C         27.05295        21.09964        -1.01548
C         28.27687        23.26733        -0.56590
C         27.05427        22.56964        -0.72658
C         28.28832        24.67303        -0.48175
C         27.07324        25.39681        -0.44983
C         28.32403        27.49357         0.15917
C         27.05503        26.82972        -0.12884
C         28.30282        28.92496         0.51579
C         27.08773        29.60862         0.69913
C         28.29318        31.71992         0.94497
C         27.07540        31.00957         0.89127
C         28.31764        33.22094         0.99853
C         27.00935        33.81454         1.41266
C         28.30973        35.95933         1.77538
C         27.03370        35.18806         2.02945
C         28.25363        37.41933         1.91256
C         27.02267        38.15322         1.66347
C         28.25647        40.26521         1.35953
C         27.01576        39.53808         1.56034
C         28.19895        41.69549         1.07216
C         26.98439        42.39559         1.15218
C         28.14172        44.50392         0.62098
C         26.94138        43.81153         0.94396
C         28.09477        45.88858         0.27592
C         26.86189        46.55938         0.33857
C         27.98695        48.56604        -0.78681
C         26.73333        47.89829        -0.26845
C         27.95431        50.02766        -1.10676
C         26.64027        50.76481        -0.95062
C         27.95334        52.91614        -1.13415
C         26.69770        52.23498        -0.88347
C         27.93258        54.32597        -1.36076
C         26.74966        55.06553        -1.31392
C         26.67111        56.37346        -1.83789
C         29.30069        12.35335         0.31558
C         30.55093        14.61618         0.52588
C         29.23486        13.85191         0.53694
C         30.59271        15.98410         0.41517
C         29.31068        16.72712         0.22222
C         30.61457        18.92163         0.25023
C         29.32557        18.21311         0.05942
C         30.68585        20.35576        -0.11825
C         29.57129        21.03980        -0.49163
C         30.81573        23.21975        -0.23339
C         29.48708        22.50127        -0.07592
C         30.83347        24.66288        -0.21115
C         29.59047        25.44518        -0.57921
C         30.72724        27.46745         0.64244
C         29.50181        26.80361         0.07640
C         30.79103        28.93453         0.23670
C         29.51280        29.64844         0.58419
C         30.78353        31.75117         1.05037
C         29.52108        31.03289         0.84327
C         30.81506        33.10394         1.41474
C         29.51865        33.78094         1.86090
C         30.76112        36.00521         1.54213
C         29.52034        35.29958         1.71853
C         30.78144        37.38313         1.35647
C         29.58761        38.19518         1.66190
C         30.60342        40.17558         0.46311
C         29.45845        39.58530         1.24316
C         30.66057        41.69123         0.58099
C         29.41946        42.40730         0.81119
C         30.62309        44.57463         0.55325
C         29.37871        43.80106         0.63949
C         30.57722        45.95593         0.07014
C         29.32314        46.59099        -0.08334
C         30.49350        48.68303        -0.65335
C         29.28657        47.93874        -0.49784
C         30.42642        50.10204        -0.89286
C         29.22538        50.78919        -1.03568
C         29.16176        52.20126        -1.17572
C         31.81967        16.75933         0.48032
C         33.09714        18.89323         0.42849
C         31.86754        18.14527         0.42187
C         33.15125        20.28512         0.38217
C         31.86843        21.08778         0.47494
C         33.30082        23.16537        -0.25847
C         31.96774        22.49721        -0.05145
C         33.27175        24.60243         0.21086
C         32.00979        25.31933         0.13951
C         33.19479        27.40546         0.67959
C         32.02735        26.74056         0.39397
C         33.16891        28.83056         0.94008
C         32.00870        29.60214         0.81429
C         33.21246        31.65512         1.46068
C         32.00391        31.00567         1.05215
C         33.28782        33.09312         1.50569
C         32.06723        33.78507         1.52068
C         33.15235        35.87188         0.74042
C         32.09953        35.29280         1.69455
C         33.16449        37.38631         0.72271
C         31.99335        38.06825         0.95922
C         33.09290        40.15747         0.11181
C         31.95917        39.57927         0.92999
C         33.05291        41.63417        -0.13388
C         31.83900        42.35439         0.31832
C         33.11790        44.52023        -0.13163
C         31.94254        43.81374         0.43295
C         33.03084        45.90372        -0.32204
C         31.79330        46.63213        -0.24348
C         31.72901        48.01262        -0.55063
C         34.38737        20.99684         0.41627
C         35.68213        23.10463         0.49198
C         34.47942        22.38769         0.28298
C         35.70819        24.51819         0.53624
C         34.44720        25.24100         0.51921
C         35.72579        27.42784         0.77849
C         34.45321        26.65111         1.05166
C         35.65108        28.81088         1.01922
C         34.37880        29.45708         1.35242
C         36.14523        31.87674         1.44943
C         34.29589        30.78991         1.75577
C         35.86907        33.16041         1.03797
C         34.63345        33.88902         1.59314
C         35.62769        35.89823         0.37553
C         34.51742        35.25459         0.93252
C         35.57862        37.32547         0.10486
C         34.39032        38.06588         0.32880
C         35.54788        40.17370        -0.31711
C         34.38193        39.45614         0.09021
C         35.50010        41.60355        -0.47981
C         34.33195        42.35932        -0.32128
C         34.29586        43.77371        -0.39335
C         36.90751        25.27054         0.62532
C         38.26823        27.31467         0.52042
C         36.95572        26.68705         0.59376
C         38.45018        28.58600         0.00132
C         36.68513        29.66477         0.50124
C         38.11024        31.62610         0.00054
C         37.02379        31.00365         0.72716
C         38.02629        33.01303        -0.20309
C         36.88644        33.77927         0.22731
C         37.98500        35.87702        -0.50016
C         36.83322        35.17896         0.03908
C         37.94033        37.29631        -0.59509
C         36.75970        38.02481        -0.32767
C         36.73218        39.43511        -0.50321
C         39.54354        29.52119        -0.02633
C         40.53498        31.72192        -0.46889
C         39.35713        30.88987        -0.22754
C         40.44240        33.02661        -0.79921
C         39.09836        33.67692        -1.03505
C         39.11231        35.16904        -0.90619
O         13.40729        29.01808        -2.56373
O         18.74821        33.61202        -0.24214
O         19.12950        52.24520         1.23415
O         27.12165        47.80732        -1.69162
O         16.96008        50.81363         0.90733
O         29.28957        22.47282         1.34181
O         23.10230        25.51750        -2.44773
O         13.36678        36.38136         3.71433
O         37.30363        29.11329        -0.63612
O         20.18637        29.78227        -1.62237
O         17.62530        18.99882        -0.15095
O         17.20405        22.22869        -0.30624
O         13.20167        31.65381         1.99144
O         13.98255        22.99076        -3.35796
O         15.82525        48.79874         1.47441
O         20.26637        27.21115         0.82998
O         29.58403        18.83369         1.33806
O         12.25140        31.31176        -1.69036
O         31.50735        44.36361         1.71418
O         29.32071        33.47493         3.20816
O         35.38243        31.31987         2.47753
O         32.76358        40.67398        -1.23039
O          9.61890        33.85528         3.13836
O         12.52723        25.65952        -3.25170
O         29.06480        37.95309         3.00444
O         14.96194        26.79267        -3.09532
O         26.85606        12.69584        -1.53149
O         24.15410        25.91982         0.85883
O         27.13872        50.30740        -2.27905
O         28.25689        16.35483         1.19656
O         27.79508        20.80227        -2.23851
O         23.55223        19.75931        -2.82511
O         20.13899        46.49032         2.94661
O         23.30431        15.03395        -2.49647
O         17.54482        42.07622         0.13854
O         30.55904        27.45368         2.09394
H         30.38826        26.52944         2.37294
O         31.59482        21.23994         1.89888
H         30.67639        21.65210         1.95023
O         21.76925         8.59338         2.19958
H         21.72607         7.70354         2.60964
O         24.46882        54.50640        -2.88831
H         24.62068        53.53788        -2.91101
O         22.57543        48.21114        -0.95239
H         23.25103        48.45911        -1.61949
O         21.76404        22.60142         0.26310
H         21.03952        23.22815         0.50424
O         23.71886        23.09196        -2.82211
H         23.42820        23.87794        -3.33989
O         23.28411        41.38373         3.25899
H         23.44827        42.24771         3.69924
O         13.98948        47.24427         2.45694
H         14.56443        48.04265         2.53368
O         15.70585        18.94123        -3.27062
H         14.88483        19.37341        -3.59152
O         17.18867        39.37230         3.57847
H         17.12383        40.27834         3.94670
O         25.64615        20.25052         0.65502
H         24.83880        19.74164         0.88297
O         22.57708        30.49585        -1.68135
H         21.71162        30.75419        -2.08569
O         19.61059        24.74300         0.53878
H         19.95495        25.39371         1.19907
O         18.27346        23.68764        -3.51669
H         19.02484        24.21983        -3.85196
O         23.88839        28.07856        -2.12064
H         23.45143        28.93915        -2.34559
O         24.70318        44.06071         3.22072
H         25.57222        43.67137         3.46312
O         20.74020        10.98898         1.97891
H         20.96524        10.14739         2.44938
O         21.27800        59.62152        -2.16220
H         21.92120        60.36146        -2.20612
O         19.12082        33.35762         3.25949
H         19.15805        32.37156         3.36225
O          9.54504        27.21789        -3.09607
H         10.36355        26.81330        -3.45956
O         33.51936        23.21199        -1.71406
H         32.80347        23.76351        -2.09745
O         34.39190        26.52005         2.51952
H         33.53031        26.10873         2.74496
O         25.42332        54.84142         0.67802
H         25.02250        55.74248         0.72049
O         24.18065        22.61492         0.78424
H         24.84723        22.05432         1.24293
O         30.91965        28.97406        -1.21598
H         30.99587        29.91314        -1.48601
O         32.74969        35.43847        -0.60145
H         33.32065        35.89432        -1.25547
O         20.96796        37.44711         3.69105
H         20.16892        37.01802         4.06560
O         32.52550        35.59066         3.04354
H         31.90191        35.15133         3.66009
O         28.66545        13.92723         1.86730
H         28.54738        14.88554         2.09076
O         12.39624        26.89746         0.20657
H         11.59743        26.43098         0.53658
O         16.87757        43.65724         3.39313
H         16.85144        44.56391         3.76671
O         23.98704        56.90377        -0.16239
H         23.82186        57.86967        -0.19429
O         38.77004        33.39724        -2.45224
H         38.73771        32.42124        -2.55094
O         21.80415        12.07554        -2.17769
H         22.47653        12.60976        -2.65619
O         18.50366        16.81296         0.52549
H         17.69274        16.59975         1.03269
O         11.07483        37.12510         0.30553
H         10.22181        36.84752        -0.09297
O         19.39238        16.53539        -3.01444
H         20.25409        16.67755        -3.45946
O         25.64592        28.47175         2.21487
H         26.40741        27.91095         2.47429
O          7.98102        35.77579         3.89056
H          8.27691        34.90020         4.23069
O         34.88857        34.12218         3.00484
H         34.97212        33.23779         3.42592
O         23.28644        40.58570        -0.32376
H         23.65036        39.80765        -0.79740
O         25.90086        37.26551        -0.21724
H         25.16082        36.69296        -0.51610
O         15.67764        30.91377         2.30245
H         14.74321        31.09749         2.59289
O         16.01356        35.69030         3.88878
H         15.14877        35.99268         4.26364
O         21.47103         9.48373        -1.33938
H         21.56482        10.32327        -1.85881
O         20.60320        40.19795        -0.32794
H         21.45639        40.54913        -0.68530
O         16.92228        16.53008        -2.80763
H         16.33266        17.16254        -3.28047
O         18.34613        12.40254         1.97541
H         19.21096        11.97910         2.21890
O         18.29236        31.21335         2.47091
H         17.33988        31.06170         2.71250
O         21.71321        53.01047         1.50845
H         20.79589        52.84922         1.83984
O         16.93335        38.06031         0.17616
H         17.15232        37.17817        -0.18981
O         28.85846        14.39321        -1.81398
H         28.46017        13.60000        -2.24297
O         32.19417        40.03609         2.28847
H         31.61838        39.52110         2.89346
O         21.87612        34.06167        -0.38052
H         20.91123        34.00901        -0.56979
O         30.33176        39.79965        -0.90654
H         31.08006        40.13862        -1.45854
O         11.93794        39.76900         3.78764
H         11.87794        40.74505         3.86706
O         22.36022        48.61877         2.68550
H         21.77057        48.15181         3.31694
O         29.76619        25.72049        -2.01890
H         29.10261        26.39516        -2.27737
O         25.53329        12.17908         1.86263
H         24.72268        11.79562         2.25901
O         28.89586        18.41027        -2.22067
H         28.50032        19.00978        -2.89511
O         28.61101        33.70843        -0.34966
H         27.88308        33.42162        -0.94059
O         10.55026        33.03550        -1.07264
H         10.89586        32.57804        -1.87833
O         24.76047        47.04415         2.66174
H         24.71894        46.18746         3.14954
O         27.05858        34.90018         3.46609
H         27.88638        34.33693         3.61125
H          4.94627        31.34210         0.18734
H          4.94464        33.62564         1.12202
H          7.45426        27.34609        -1.22539
H          6.21187        29.31300        -0.52134
H          6.13493        35.55812         1.92465
H          7.44503        37.81335         2.12010
H         10.09471        23.04752        -1.01944
H          8.81682        25.19705        -0.98086
H          8.65802        39.85330         1.47723
H          9.89837        41.90626         1.04081
H         12.45343        18.86540        -0.83642
H         11.26783        20.94109        -1.19629
H         11.07763        44.03346         0.84977
H         12.18289        46.15503         0.76891
H         14.86873        14.66476         0.08717
H         13.68477        16.78611        -0.32854
H         13.79052        47.46506        -0.85767
H         14.90707        49.84262        -1.65072
H         17.09444        10.23353         0.26214
H         15.97202        12.57462         0.51202
H         16.27336        52.00416        -2.15848
H         17.33563        53.92201        -2.57741
H         19.39346         5.80893         0.22608
H         18.24833         8.00347         0.19671
H         18.43583        55.97997        -3.23142
H         19.51058        58.07653        -3.85048
H         22.63609         2.29898         0.11369
H         20.54154         3.63188         0.24431
H         22.94328        60.95043        -5.62254
H         20.77566        59.91365        -5.03565
H         24.85803         3.40914         0.08437
H         26.21749         5.49530         0.17922
H         26.31158        58.68768        -3.15629
H         25.03721        60.33649        -4.43099
H         27.55307         7.58474         0.24847
H         28.88850         9.62409         0.46264
H         28.86251        54.81478        -1.69160
H         27.59151        56.83418        -2.23280
H         30.25006        11.81552         0.46878
H         31.48599        14.06013         0.70221
H         31.36924        50.66883        -0.91489
H         30.10371        52.76216        -1.26880
H         32.76289        16.20125         0.59268
H         34.04291        18.32647         0.44532
H         33.92458        46.44802        -0.66342
H         32.65956        48.56891        -0.73496
H         35.31137        20.42461         0.60611
H         36.61087        22.54787         0.69603
H         36.44480        42.12739        -0.69059
H         35.21424        44.31473        -0.66833
H         37.86309        24.72261         0.61033
H         39.13476        26.73272         0.86885
H         38.83235        37.83501        -0.94909
H         37.65179        39.94858        -0.81972
H         40.57554        29.14312         0.04952
H         41.52197        31.24037        -0.38870
H         41.35076        33.60986        -1.01255
H         39.97846        35.71686        -1.30740
