         286
 CSIRO Nanostructure Databank - Neutral Graphene Oxide Data Set
C        -11.09710         0.64165        -0.25835
C         -9.81883         1.45999        -0.21815
C         -8.75222         0.67059         0.60031
C         -7.40931         1.41491         0.58646
C         -6.16939         0.61117         0.36689
C         -4.86270         1.26487        -0.08010
C         -3.68536         0.74874         0.78105
C         -2.41970         1.39167         0.23285
C         -1.14219         0.64940         0.22185
C          0.13993         1.42023         0.23763
C          1.43027         0.68689         0.17358
C          2.67852         1.40012        -0.16287
C          3.86461         0.74827        -0.33924
C          5.14152         1.55980        -0.51088
C          6.40516         0.67146        -0.44481
C          7.76105         1.34934        -0.42214
C          8.84837         0.64572         0.33416
C         10.15775         1.41613         0.54936
C         11.36334         0.56975         0.64197
C         -9.99255         2.89598         0.31823
C         -8.68131         3.66464         0.24428
C         -7.41117         2.90432         0.42264
C         -6.16959         3.59475        -0.05502
C         -4.90111         2.81733        -0.21635
C         -3.55242         3.57983        -0.32941
C         -2.39330         2.88342         0.37096
C         -1.08092         3.59271         0.38492
C          0.09394         2.85047        -0.25013
C          1.41137         3.52967         0.00824
C          2.58740         2.84920         0.01030
C          3.81961         3.53088         0.45930
C          5.10615         2.78943         0.47155
C          6.29883         3.66174         0.71689
C          8.01193         2.81374        -0.77315
C          9.07153         3.58520        -0.03939
C         10.23904         2.84494         0.22574
C         -8.62482         5.01748         0.10515
C         -7.36176         5.76023         0.10921
C         -6.16990         5.07546         0.06454
C         -4.89443         5.83169         0.03546
C         -3.60128         5.10061        -0.07165
C         -2.37085         5.76263         0.55792
C         -1.07561         5.06505         0.21930
C          0.11271         5.70868         0.06295
C          1.37397         4.96774         0.46277
C          2.66639         5.67058         0.14034
C          3.84079         5.00352         0.31608
C          5.12031         5.62309        -0.14542
C          6.39818         4.92953         0.18023
C          7.66266         5.68586         0.14572
C          8.92005         4.96887         0.19673
C         -7.34013         7.22038         0.03112
C         -6.18669         7.94225         0.16833
C         -4.92933         7.23481         0.64807
C         -3.63168         8.01214         0.33373
C         -2.33557         7.27114         0.33896
C         -1.14551         7.90061        -0.33405
C          0.13348         7.12106        -0.39015
C          1.46276         7.83335        -0.58907
C          2.64425         7.15699         0.08373
C          3.94144         7.90039         0.09664
C          5.14471         7.10650        -0.36493
C          6.48559         7.78946        -0.65868
C          7.65570         7.06830        -0.00634
C         -6.11286         9.37903        -0.05966
C         -4.95311        10.02299        -0.32454
C         -3.64461         9.28384        -0.50557
C         -2.39503        10.16134        -0.20950
C         -1.07745         9.38826        -0.33400
C          0.12915        10.01534        -0.41772
C          1.42901         9.33486        -0.41805
C          2.60592        10.02537        -0.37699
C          3.94731         9.43614         0.04692
C          5.22720         9.98293        -0.54497
C          6.38178         9.29696        -0.58294
C        -11.08264        -0.70201        -0.34967
C         -9.81884        -1.48089        -0.36665
C         -8.58648        -0.74754         0.07075
C         -7.44953        -1.55340         0.68785
C         -6.16852        -0.73715         0.55829
C         -4.91491        -1.48809         0.84441
C         -3.60838        -0.77295         0.73070
C         -2.43932        -1.45505         0.61926
C         -1.08550        -0.76612         0.75933
C          0.05356        -1.47273        -0.02800
C          1.47077        -0.81883         0.28483
C          2.53952        -1.47319        -0.62812
C          3.92828        -0.70952        -0.73237
C          5.13012        -1.44740        -0.16911
C          6.32482        -0.78136        -0.03946
C          7.58352        -1.51584         0.18045
C          8.82607        -0.81786         0.33868
C         10.04696        -1.53858         0.56435
C         11.29691        -0.78247         0.64222
C         -9.78573        -2.94815        -0.28551
C         -8.59625        -3.65927        -0.13505
C         -7.27767        -2.91621        -0.03240
C         -6.14532        -3.75036         0.53755
C         -4.93779        -2.98972         0.97948
C         -3.56383        -3.69158         1.08417
C         -2.46280        -2.93213         0.35747
C         -1.19842        -3.66094         0.04538
C          0.12563        -2.97067         0.31919
C          1.29211        -3.69932        -0.42159
C          2.64980        -2.97303        -0.16912
C          3.89420        -3.61393        -0.82170
C          5.07943        -2.93786        -0.11628
C          6.35619        -3.68787         0.09068
C          7.58956        -2.91135         0.25442
C          8.76498        -3.67995         0.79235
C         10.05136        -2.92010         0.65638
C         -8.57579        -5.07119        -0.15431
C         -7.36731        -5.82508        -0.02407
C         -6.16616        -5.11566         0.44921
C         -4.95904        -5.93644         0.76763
C         -3.64539        -5.21506         0.86660
C         -2.42237        -5.93730         0.37935
C         -1.17749        -5.17653         0.06687
C          0.12967        -5.90324         0.26812
C          1.39953        -5.13911         0.07716
C          2.64230        -5.89056        -0.29816
C          3.87763        -5.14117        -0.68567
C          5.20082        -5.85666        -0.72193
C          6.45955        -5.11469        -0.38167
C          7.71919        -5.84312        -0.05630
C          8.79974        -5.13645         0.35114
C         -7.32828        -7.17703        -0.33543
C         -6.02036        -7.90883        -0.49910
C         -5.02118        -7.46587         0.57100
C         -3.65817        -8.15644         0.36276
C         -2.36099        -7.43732         0.43967
C         -1.14160        -8.07816        -0.24653
C          0.13678        -7.43656         0.33020
C          1.40977        -8.04916        -0.32190
C          2.69648        -7.33314         0.17788
C          3.92476        -8.07022        -0.30200
C          5.15503        -7.36751        -0.68840
C          6.48698        -8.11125        -0.50182
C          7.80805        -7.35640        -0.30581
C         -6.08023        -9.43127        -0.41591
C         -4.96289       -10.16871        -0.26680
C         -3.60735        -9.49676        -0.38804
C         -2.33166       -10.24164        -0.01102
C         -1.11868        -9.57917        -0.03003
C          0.17239       -10.21067         0.11073
C          1.40913        -9.53921        -0.01182
C          2.66771       -10.16157         0.09212
C          3.91010        -9.45935        -0.12134
C          5.18045       -10.14739         0.02417
C          6.37488        -9.49430        -0.00807
O          2.01667        -1.48169        -1.94609
H          2.73362        -1.76955        -2.55785
O          0.89310        -5.38620         1.41022
O         -8.79938        -0.92573        -1.34313
O          7.26735         0.69125        -1.62747
O         -0.33036        -1.27081        -1.37973
H          0.05796        -1.97824        -1.94503
O         -2.86072        -8.13853         1.59750
O          4.29765         2.80186         1.69031
O         -2.74966         8.07430         1.49034
O          1.80657         7.68128        -2.04989
O        -10.44456         2.85671         1.67999
H        -10.40921         3.76476         2.04500
O         -4.13948         5.80644        -1.23496
O          7.53860         3.26184        -1.81158
O          6.04580        -5.29636        -1.78567
O          4.85898         6.19253        -1.48395
O         -5.72732         3.14298        -1.39388
O         -2.04611        -5.63245        -1.00919
O          4.33914        -0.68271        -2.20000
O          5.88295        -7.95423        -1.81274
O          3.25280         7.56509         1.36439
O         -1.75885         3.21196         1.64058
O          3.53577         0.28144        -2.92024
H          4.06494         1.12393        -2.81722
O         -0.74501         7.26716        -1.58209
O          0.12962        -7.80822         1.72074
H          0.65718        -7.12769         2.20351
O         -0.81180        -0.69256         2.17030
H         -0.60889        -1.62036         2.46027
O          1.43707        -7.85410        -1.73556
O          5.38361        -3.51993         1.20460
O         -1.90875         0.83756        -1.00938
O         -7.27508         2.30232         1.75844
O         -6.63255        -3.79197        -2.13354
H         -6.03060        -3.49548        -2.85902
O         -3.14851         3.43889        -1.71195
H         -3.86359         3.84449        -2.25378
O          9.14366         1.21986         1.64803
O          4.05089         9.92272         1.42453
H          3.51913         9.30568         1.98127
O          2.97782        -5.71482        -1.70164
O         -7.78440        -1.83892         2.05013
H         -8.07982        -0.99832         2.47358
O          7.20967         3.18023         1.61124
H          6.88938         2.35765         2.03295
O         -4.29763        -5.73870         2.06729
O         -1.43122         6.03305         2.71923
H         -0.81485         5.25437         2.70861
O         -9.32908         1.64674        -1.55978
H         -9.16587         0.74648        -1.94021
O         -0.15039         2.86253        -1.67184
H         -0.92403         2.26988        -1.85236
O         -5.12681        -2.15011         2.15940
O         -2.08262        -3.19830        -1.01880
O         -0.92964        -8.98378        -2.45096
H         -1.84257        -9.38833        -2.53513
O          6.82119         7.59307        -2.06845
H          6.31193         6.79726        -2.36620
O         -5.05108         7.10104         2.07312
O         -3.46808        -9.23613        -1.82322
H         -4.12560        -8.53147        -2.06833
O          2.85576        -3.17482         1.24291
H          3.46937        -2.50296         1.60816
O          1.27028         4.91069         1.93160
H          2.02378         4.37828         2.26934
O          3.95960        -3.32569        -2.22413
H          4.62753        -3.93045        -2.62251
O         -5.49000        -7.49047        -1.80019
H         -6.21221        -7.55427        -2.46007
O          8.47142        -7.98579         0.79021
H          9.31246        -7.51911         0.96923
O         -3.90222         1.20644         2.12168
H         -3.20889         0.82862         2.70292
O         -6.82481        -2.54060        -1.39873
O          1.75153         6.26625        -2.34334
H          0.84509         6.15878        -2.72824
O          1.85061        -1.04684         1.65435
H          1.29274        -0.42951         2.19276
O          0.90331         1.26902         1.45505
O         -2.59785         5.54545         2.01926
H         -4.13444         7.12002         2.44597
O         -5.55903        -7.98751         1.80144
H         -4.93139        -7.71953         2.51057
O          0.95597        -3.76378        -1.80859
H          1.64254        -4.30915        -2.26358
O         -3.53698         8.90507        -1.90321
H         -4.08404         8.10557        -2.06223
O          8.51321        -3.77780         2.25887
H          7.54288        -3.86776         2.38589
O          0.25756        -3.07304         1.75216
H          1.22688        -3.05801         1.96861
O         -2.39900        11.27049        -1.10324
H         -2.50299        10.90419        -2.00788
O         -1.24635        -7.77577        -1.69238
H          0.75789        -8.42085        -2.16879
O          5.09255         2.17875        -1.81393
H          6.02132         2.39532        -2.10690
O         -3.10328        -3.54685         2.44923
H         -3.75383        -4.00395         3.02771
O         -9.18886         0.51212         1.96123
H         -9.32574         1.41686         2.33373
O          2.76965        -7.31586         1.62057
H          2.69831        -8.24207         1.93644
O         -4.61250         0.76441        -1.40525
H         -5.12669         1.31505        -2.03612
H         12.22834        -1.36480         0.71016
H         12.34236         1.07192         0.66525
H         11.19304         3.36477         0.41002
H          9.81404         5.53667         0.50296
H          8.63166         7.57611        -0.08187
H          7.30053         9.83355        -0.86966
H          5.25941        11.07713        -0.66915
H          2.55683        11.12631        -0.33431
H          0.14995        11.11662        -0.41517
H         -2.47750        10.56800         0.83243
H         -4.95866        11.10435        -0.52856
H         -7.05884         9.94390        -0.05291
H         -8.27937         7.73386        -0.22740
H         -9.55684         5.59448        -0.00559
H        -10.76331         3.42855        -0.30896
H        -12.05966         1.17587        -0.24892
H        -12.02883        -1.26360        -0.39170
H        -10.73873        -3.49678        -0.34326
H         -9.51252        -5.61254        -0.36041
H         -8.25297        -7.67140        -0.67483
H         -7.06902        -9.91654        -0.39977
H         -5.02626       -11.26467        -0.17933
H         -2.36681       -11.33163         0.14571
H          0.18916       -11.29846         0.29161
H          2.71762       -11.24414         0.29075
H          5.15184       -11.20621         0.32314
H          7.29436       -10.00913         0.30434
H          8.42258        -7.50570        -1.24396
H          9.74264        -5.67036         0.56030
H         10.99949        -3.45266         0.82546
