         404
 CSIRO Nanostructure Databank - Neutral Graphene Oxide Data Set
C          1.33837         3.79163         1.79206
C          0.11382         4.41206         1.55966
C          1.23446         6.38862         0.65608
C          0.05485         5.69153         1.00326
C          1.21346         7.74294         0.13929
C          0.00099         8.44192        -0.07871
C          1.19204        10.51094        -0.58996
C         -0.01156         9.77250        -0.45202
C          1.17660        11.95077        -0.88422
C         -0.08316        12.65847        -1.05954
C          1.04157        14.86237        -0.96846
C         -0.15610        14.01060        -1.10643
C          0.85411        16.35721        -1.03171
C          0.00923        16.90506         0.01247
C          0.80104        19.19021        -0.45814
C          0.01452        18.22484         0.32360
C          1.15007        20.52382         0.07707
C          0.17768        21.17193         0.87028
C          1.31053        23.28267         0.54929
C          0.24474        22.52883         1.09427
C          1.27646        24.71945         0.58185
C          0.11628        25.46546         0.99828
C          1.19908        27.63276         0.61148
C          0.07662        26.83767         1.00836
C          1.24329        29.03596         0.70489
C          0.05829        29.81550         0.99356
C          1.30274        31.94439         0.85020
C          0.06146        31.17291         1.02616
C          1.36178        33.44752         1.20473
C          0.16255        34.16811         1.65221
C          1.53476        36.12011         2.16455
C          0.26945        35.44057         2.11937
C          1.57635        37.51937         2.33885
C          3.79765         3.81817         1.71374
C          2.54790         4.43495         1.43816
C          3.69659         6.40386         0.45485
C          2.49142         5.74878         0.85106
C          3.69956         7.73814         0.02543
C          2.43815         8.43231        -0.09360
C          3.68254        10.55941        -0.39761
C          2.40748         9.81868        -0.40946
C          3.65453        12.02732        -0.72479
C          2.35438        12.65790        -1.03841
C          3.62796        14.78767        -1.59634
C          2.36675        14.14155        -1.12497
C          3.67378        16.06348        -2.14109
C          1.65898        17.19705        -1.74678
C          2.94793        19.42398        -1.83164
C          1.69017        18.66703        -1.56464
C          3.35385        20.56214        -1.16536
C          2.31039        21.20627        -0.34704
C          3.57985        23.31583        -0.47266
C          2.40225        22.60245        -0.08165
C          3.57522        24.70747        -0.27001
C          2.41562        25.41289         0.15672
C          3.67382        27.64853         0.01822
C          2.37065        26.89323         0.10229
C          3.71719        29.06664         0.38900
C          2.50111        29.75862         0.59574
C          3.80582        31.79489         0.99483
C          2.55861        31.16022         0.82474
C          3.84433        33.17439         1.54504
C          2.66433        34.03073         1.58127
C          4.03463        36.08720         2.03418
C          2.75614        35.38692         1.96737
C          4.01868        37.54822         2.00128
C          2.76323        38.20701         2.18402
C          6.26100         3.84579         1.61566
C          5.01304         4.39090         1.29522
C          6.24395         6.31836         0.11825
C          4.94336         5.61449         0.46603
C          6.19643         7.75788        -0.17567
C          4.95651         8.42979        -0.25615
C          6.15906        10.52499        -0.80012
C          4.95586         9.82648        -0.50933
C          6.11955        11.95681        -1.13884
C          4.91356        12.68136        -1.13838
C          6.09173        14.75715        -1.69191
C          4.87379        14.07214        -1.45213
C          6.09616        16.17729        -1.91599
C          4.87990        16.84641        -2.17408
C          5.99023        19.06257        -1.92639
C          4.88444        18.26585        -2.28720
C          5.92273        20.52525        -1.66083
C          4.69354        21.20735        -1.30764
C          5.99537        23.30634        -1.12627
C          4.76969        22.59532        -0.96528
C          6.02573        24.76827        -0.90392
C          4.87327        25.40784        -0.21388
C          6.19239        27.61594        -0.04444
C          4.93448        26.86308         0.09424
C          6.20338        28.97346         0.17048
C          4.96807        29.71862         0.45610
C          6.36199        31.68729         1.15710
C          5.01304        31.08216         0.81507
C          6.38908        33.19929         1.14545
C          5.19794        33.87112         1.67354
C          6.52117        35.88674         1.85540
C          5.21725        35.33396         1.83726
C          6.46071        38.00736         1.66258
C          5.09841        38.38917         1.61835
C          8.72482         3.97303         1.76178
C          7.49772         4.49856         1.30125
C          8.71562         6.43571         0.33772
C          7.50246         5.74425         0.60851
C          8.66921         7.73327        -0.27694
C          7.42674         8.44449        -0.39836
C          8.63751        10.46051        -1.30996
C          7.38333         9.82156        -0.76921
C          8.60515        11.96394        -1.33923
C          7.33507        12.64713        -1.45671
C          8.53475        14.76592        -2.03170
C          7.30852        14.03775        -1.68138
C          8.56018        16.24737        -2.00509
C          7.28660        16.94564        -1.94324
C          8.51476        19.06920        -1.80971
C          7.22478        18.34953        -1.88957
C          8.48163        20.55396        -1.71400
C          7.16195        21.24323        -1.63477
C          8.49257        23.38736        -1.51710
C          7.20953        22.65261        -1.45419
C          8.56066        24.75364        -1.20998
C          7.31949        25.51493        -0.93617
C          8.63016        27.61309        -0.57486
C          7.45543        26.79516        -0.11980
C          8.60604        28.99113        -0.44226
C          7.45027        29.71350         0.04090
C          8.65957        31.86047         0.15318
C          7.49129        31.07505         0.36561
C          8.73307        33.23341         0.41757
C          7.54735        33.91484         0.87719
C          8.78863        36.12053         0.87243
C          7.63431        35.33484         1.17982
C          8.78547        37.57855         0.88721
C          7.58095        38.38732         0.93666
C         11.17122         4.10684         2.01918
C          9.95518         4.61360         1.47301
C         11.23428         6.36427         0.23680
C          9.94717         5.81560         0.70181
C         11.26162         7.76096        -0.31303
C          9.93560         8.41732        -0.61873
C         11.08563        10.60836        -0.63766
C          9.92024         9.88504        -0.74976
C         11.01970        12.07834        -0.78133
C          9.78911        12.65847        -1.35248
C         11.08925        14.81882        -1.77188
C          9.84601        14.03475        -1.84547
C         11.01716        16.19585        -2.30605
C          9.73539        16.91900        -2.18107
C         10.99034        19.14447        -2.27104
C          9.69599        18.39716        -2.48470
C         10.92986        20.56695        -2.26089
C          9.73136        21.28982        -2.05006
C         10.94225        23.44791        -1.95829
C          9.72950        22.71573        -1.88047
C         11.00840        24.82650        -1.59222
C          9.79310        25.48944        -1.21150
C         11.06284        27.58922        -0.99204
C          9.82029        26.89375        -0.95702
C         11.11310        28.99430        -0.77819
C          9.83901        29.74275        -0.72499
C         11.14343        31.84488        -0.06996
C          9.85093        31.19635        -0.39792
C         11.13304        33.31487        -0.06377
C          9.95755        33.99520         0.20654
C         11.16904        36.15714         0.17918
C          9.97391        35.44893         0.38137
C         11.22804        37.57592         0.45329
C          9.99535        38.25248         0.67982
C         13.60370         4.22181         2.35273
C         12.44110         4.67186         1.74577
C         13.75924         6.59791         0.67321
C         12.51597         5.75299         0.72306
C         13.62833         8.05824         0.47278
C         12.43562         8.62573        -0.01992
C         13.56017        10.81470        -0.21557
C         12.35954        10.01864        -0.26697
C         13.56110        12.20215        -0.58614
C         12.27901        12.89534        -0.77237
C         13.51414        14.99697        -1.41852
C         12.26958        14.25714        -1.36198
C         13.52733        16.33084        -1.89654
C         12.28879        16.98661        -2.38124
C         13.45498        19.17149        -2.47617
C         12.23188        18.47619        -2.36891
C         13.48880        20.58895        -2.54489
C         12.18418        21.28470        -2.56591
C         13.49995        23.44090        -2.23890
C         12.18492        22.80210        -2.42827
C         13.50522        24.94972        -2.19440
C         12.24185        25.53381        -1.60955
C         13.53500        27.57626        -1.03923
C         12.28482        26.89002        -1.22826
C         13.56514        28.94141        -0.73701
C         12.33374        29.65457        -0.67544
C         13.67838        31.80336        -0.64476
C         12.39599        31.08088        -0.28449
C         13.67536        33.23469        -0.18302
C         12.40593        33.98429        -0.34683
C         13.74284        36.14053        -0.13575
C         12.40158        35.47992        -0.28214
C         13.73965        37.63346         0.24889
C         12.44158        38.26962         0.49779
C         16.04612         4.34205         2.86849
C         14.97637         4.61172         1.84929
C         16.00858         7.03280         1.80682
C         15.01307         6.04974         1.30767
C         15.93271         8.35168         1.36579
C         14.79029         8.86374         0.63364
C         16.09499        10.91537        -0.00922
C         14.77525        10.20686         0.19164
C         15.97818        12.40458        -0.19812
C         14.75205        12.97945        -0.60108
C         15.93298        15.11775        -1.03322
C         14.72004        14.37649        -0.99082
C         15.93821        16.44731        -1.55307
C         14.73318        17.04766        -1.97014
C         15.99830        19.08267        -2.94330
C         14.71173        18.39442        -2.60178
C         15.95294        20.64358        -3.23703
C         14.69565        21.31522        -2.65364
C         15.96412        23.55308        -2.58781
C         14.67946        22.74093        -2.44925
C         15.97742        24.83686        -1.77814
C         14.76882        25.52799        -1.59517
C         15.97953        27.44619        -0.61352
C         14.77622        26.84029        -1.08102
C         15.99081        28.79885        -0.08930
C         14.80039        29.60356        -0.31970
C         15.92449        31.62522         0.57400
C         14.83412        30.97364        -0.15208
C         16.04352        33.10772         0.48056
C         14.85686        33.87963         0.16581
C         16.11801        35.96787         0.55933
C         14.91606        35.32863         0.22329
C         16.14432        37.40960         0.79096
C         14.96693        38.15959         0.81447
C         18.24944         4.74047         3.86035
C         17.10029         5.19654         3.11181
C         18.20186         7.39068         2.90323
C         17.09751         6.56444         2.62485
C         18.15955         8.82586         2.59822
C         16.93989         9.34272         1.79838
C         18.25629        11.36963         1.20826
C         17.11938        10.57319         1.03966
C         18.33077        12.65655         0.54147
C         17.15034        13.19158        -0.08262
C         18.37837        15.26170        -0.64461
C         17.15173        14.53163        -0.56716
C         18.41366        16.52307        -1.32754
C         17.19118        17.12894        -1.76645
C         18.49816        18.74812        -2.94185
C         17.22949        18.33037        -2.51302
C         18.48052        20.85643        -3.18309
C         17.22422        21.40599        -2.87933
C         18.45269        23.35651        -2.08844
C         17.22393        22.73393        -2.41833
C         18.46525        24.77208        -1.66579
C         17.18183        25.43804        -1.36835
C         18.37605        27.24182        -0.09742
C         17.19009        26.71427        -0.73105
C         18.29105        28.45906         0.65582
C         17.13501        29.33522         0.52905
C         18.33983        31.55958         1.35800
C         17.10935        30.76299         1.01516
C         18.41530        32.97340         1.17316
C         17.24592        33.74841         0.77062
C         18.51922        35.85605         1.09983
C         17.30435        35.19477         0.80339
C         18.56790        37.29582         1.17115
C         17.38632        38.03487         1.08389
C         19.36653         5.51737         3.99095
C         20.54443         7.67588         3.56765
C         19.38612         6.86204         3.49182
C         20.57097         8.96513         3.04848
C         19.40835         9.59376         2.53808
C         20.56001        11.72911         2.00028
C         19.40022        10.89761         1.96069
C         20.62127        12.93120         1.33826
C         19.50871        13.43181         0.59083
C         20.78450        15.42716        -0.24292
C         19.56680        14.70496        -0.09421
C         20.83939        16.60538        -0.95399
C         19.67071        17.16868        -1.54386
C         20.90301        19.14175        -2.60118
C         19.71465        18.33431        -2.37505
C         20.89492        20.50109        -2.75025
C         19.70540        21.34428        -2.69733
C         20.85572        23.18246        -1.46774
C         19.67902        22.64026        -2.11326
C         20.86318        24.39516        -0.86772
C         19.72472        25.31926        -0.99976
C         20.60174        26.78606         0.81766
C         19.57606        26.46876        -0.07499
C         20.45143        27.85749         1.69961
C         19.33219        28.67747         1.59630
C         20.56389        31.62386         2.42022
C         19.38348        30.95556         2.07228
C         20.69815        32.96040         2.08009
C         19.62214        33.65991         1.49710
C         20.92322        35.79413         1.50421
C         19.71649        35.11010         1.34778
C         20.97690        37.20598         1.49231
C         19.82471        37.94794         1.36737
O         14.85590         6.05648        -0.14981
O          4.59084        33.18382         2.83651
O          6.42442        25.57157        -2.08577
O          1.26489        32.97277        -0.20012
O         16.03171        31.07935         1.95197
O          3.71737        11.57496         0.68467
O          1.88700        14.61216         0.21166
O         11.70905        16.39329        -3.60233
O         15.25677        18.36753        -3.99085
O          9.22777        14.18239        -3.18313
O         17.03960         9.51640         3.25024
O          9.72128        30.76664        -1.79631
O         11.99615         5.39516        -0.58861
O          2.53891        16.66537        -2.68902
O         18.52621        19.69808        -3.97092
O         19.22358        29.66390         2.57686
O          2.88781        27.39763        -1.18946
O          3.74018        18.85723        -2.82677
O          5.54126         5.46494        -0.86417
O          6.72829        37.01054         2.63848
O         11.41955        12.80256         0.44907
O         13.95476        37.15694        -1.14981
O         10.76905         7.80429        -1.68567
O         11.88874        31.28198         1.08268
O          8.74364        19.67510        -0.50891
O         12.29925        34.80281        -1.59243
O         19.40057        25.62937        -2.39710
O         12.04810        22.15837        -3.73830
O          0.41888        19.32242        -1.88590
O          5.06198        25.86751         1.18672
O         13.51345        25.36407        -3.60233
H         14.34666        24.99988        -3.99835
O         13.75113        31.84177        -2.10433
H         13.24748        32.62383        -2.41910
O         15.26467         3.70179         0.74690
H         15.04170         4.19027        -0.08332
O          8.64211        10.06714        -2.72981
H          9.48246        10.37482        -3.13114
O          6.60796        31.29605         2.55492
H          5.94212        31.78883         3.09406
O         15.80009        20.79529        -4.66785
H         15.31733        19.99388        -4.98617
O          7.77283        26.33795         1.23285
H          7.66336        27.09357         1.84754
O         15.96927        23.97964        -3.99610
H         15.94793        23.16103        -4.54362
O          9.43003        18.48804        -3.92004
H         10.11265        17.94523        -4.37555
O         16.62847        10.38456        -1.28787
H         15.96506        10.57303        -1.98543
H          1.37468         2.79106         2.24592
H         -0.81859         3.89602         1.82790
H         -0.92852         6.15499         0.84890
H         -0.95971         7.92860         0.06093
H         -0.98242        10.26299        -0.59891
H         -1.01109        12.08041        -1.16650
H         -1.12137        14.50269        -1.29574
H         -0.57422        16.20013         0.62082
H         -0.53581        18.57857         1.20614
H         -0.68885        20.60447         1.23464
H         -0.55856        23.02326         1.65457
H         -0.78168        24.92015         1.31823
H         -0.84147        27.33263         1.35407
H         -0.90035        29.29156         1.11266
H         -0.88698        31.71370         1.14865
H         -0.82435        33.70472         1.52200
H         -0.63358        36.00411         2.39641
H          0.63802        38.06702         2.50672
H          3.81187         2.86507         2.26337
H          2.75647        39.30625         2.21141
H          6.29995         2.91259         2.19718
H          4.84255        39.39740         1.25777
H          8.72743         3.04218         2.34727
H          7.57024        39.31902         0.35224
H         11.11712         3.24241         2.69751
H         10.00569        39.35093         0.72990
H         13.53813         3.40077         3.08302
H         12.43540        39.32705         0.80263
H         16.08042         3.32197         3.28122
H         14.97723        39.17859         1.22907
H         18.23570         3.71586         4.25941
H         17.41905        39.12848         1.19678
H         20.26056         5.12787         4.49902
H         21.46169         7.25022         3.99911
H         21.52435         9.51124         3.05976
H         21.43441        11.40519         2.58107
H         21.53982        13.52828         1.41518
H         21.71502        15.02234         0.17725
H         21.80567        17.11111        -1.08622
H         21.88299        18.64519        -2.52501
H         21.87128        21.00793        -2.79594
H         21.74524        22.54171        -1.39296
H         21.75327        24.70528        -0.30345
H         21.51785        26.18456         0.86426
H         21.21151        28.07120         2.46127
H         21.34884        31.09534         2.97544
H         21.62137        33.48701         2.35236
H         21.86332        35.24433         1.64419
H         21.94730        37.70600         1.61810
H         19.85570        39.04617         1.40237
