         420
 CSIRO Nanostructure Databank - Neutral Graphene Oxide Data Set
C         28.26247        27.35555        -1.09476
C         28.22407        28.77350        -1.06708
C         27.03234        29.47986        -1.39320
C         28.14146        31.61355        -0.97049
C         26.99409        30.85212        -1.34211
C         28.09701        33.04785        -0.88922
C         26.87081        33.76410        -1.11994
C         27.95319        35.91982        -0.72583
C         26.79726        35.12342        -1.01833
C         27.89617        37.31732        -0.66652
C         26.68760        38.06735        -0.77345
C         27.86695        40.21625        -0.50288
C         26.66742        39.43783        -0.69997
C         27.82600        41.65891        -0.41522
C         26.61246        42.39509        -0.39225
C         27.82537        44.50848        -0.26888
C         26.60937        43.77574        -0.33102
C         27.82414        45.95976        -0.27355
C         30.60670        27.37822        -0.41370
C         29.42122        26.68252        -0.77772
C         30.59315        28.79985        -0.36732
C         29.39203        29.49919        -0.70324
C         30.52817        31.65201        -0.30144
C         29.35338        30.92635        -0.66508
C         30.47657        33.07418        -0.24102
C         29.25766        33.77318        -0.54309
C         30.31921        35.92814        -0.02426
C         29.21225        35.22386        -0.46800
C         30.24821        37.41662         0.25479
C         29.20636        38.06740        -0.65158
C         30.32162        40.26002        -0.26010
C         29.09143        39.54825        -0.39083
C         30.29684        41.66936        -0.35352
C         29.05997        42.37952        -0.37974
C         30.30080        44.55058        -0.12528
C         29.04035        43.80566        -0.29395
C         30.27730        46.05646        -0.02628
C         28.96347        46.69504        -0.22441
C         33.06155        24.57495         0.02280
C         31.89425        25.26198        -0.22971
C         32.98717        27.38458         0.31434
C         31.82475        26.67067        -0.10183
C         32.96460        28.83429         0.36738
C         31.76903        29.52911         0.00667
C         32.91361        31.69277         0.37646
C         31.74008        30.95956         0.03346
C         32.85311        33.12212         0.44794
C         31.62860        33.78276         0.19206
C         32.80546        36.02702         0.64197
C         31.50741        35.21892         0.44082
C         32.77344        37.46200         0.33139
C         31.58568        38.13904         0.11559
C         32.81965        40.28314        -0.13866
C         31.57094        39.55494        -0.10377
C         32.83004        41.68391        -0.36285
C         31.56122        42.38753        -0.56476
C         32.84169        44.61581        -0.31521
C         31.56792        43.89561        -0.56034
C         32.81511        45.97961        -0.11498
C         31.56236        46.79488        -0.39637
C         32.81580        48.82266         0.35587
C         31.62910        48.17850         0.19296
C         35.48843        23.11510         0.68413
C         35.46361        24.53571         0.69695
C         34.22757        25.25729         0.44636
C         35.36817        27.36231         1.10802
C         34.17369        26.66108         0.60215
C         35.34747        28.88271         1.14797
C         34.12735        29.57269         0.69544
C         35.34531        31.70136         0.97367
C         34.14011        30.99414         0.66272
C         35.28811        33.17103         1.06601
C         34.04964        33.87849         0.70290
C         35.31265        35.97605         0.39531
C         34.07853        35.27869         0.61159
C         35.22814        37.37223        -0.19018
C         34.09591        38.17226         0.46323
C         35.27096        40.27812        -0.22680
C         34.05536        39.59997        -0.00765
C         35.26182        41.67733        -0.40875
C         34.04804        42.41259        -0.39482
C         35.31446        44.56573        -0.33543
C         34.07039        43.85967        -0.34975
C         35.32647        45.99000        -0.13766
C         34.07417        46.66227         0.36506
C         35.30282        48.85530         0.10586
C         34.07700        48.15862         0.18326
C         35.35490        50.28463         0.20450
C         37.91116        23.08846         0.94568
C         36.66368        22.41317         0.81496
C         37.90219        24.51706         1.00302
C         36.67545        25.23802         0.90984
C         37.85607        27.40337         1.14730
C         36.67609        26.67740         1.04480
C         37.86475        28.86816         1.11422
C         36.62801        29.61440         1.11786
C         37.86956        31.77554         1.31319
C         36.58902        31.02440         1.13256
C         37.95744        33.32113         1.27221
C         36.59346        33.98011         1.08466
C         37.78404        35.99003         0.15429
C         36.54484        35.33686         0.51396
C         37.76384        37.40268        -0.08755
C         36.53492        38.12170        -0.12632
C         37.77220        40.21497        -0.26006
C         36.53247        39.51821        -0.22368
C         37.73874        41.68684        -0.16354
C         36.53955        42.38446        -0.75545
C         37.77660        44.54853        -0.50613
C         36.54390        43.86376        -0.47093
C         37.74039        46.01338        -0.65646
C         36.50438        46.72659        -0.28174
C         37.78977        48.85809        -0.05837
C         36.54155        48.14629        -0.09120
C         37.79626        50.25867         0.24462
C         36.54901        50.94883         0.30843
C         40.34780        20.24100         0.87032
C         39.20088        20.94775         0.77110
C         40.35682        23.08675         1.25711
C         39.14423        22.37429         1.02636
C         40.32371        24.51326         1.30574
C         39.13201        25.22844         1.14957
C         40.31879        27.38087         1.05781
C         39.12948        26.69591         1.14782
C         40.39753        28.87277         1.12357
C         39.06903        29.54045         0.92376
C         40.31263        31.71235         0.44154
C         39.13453        31.01137         1.01241
C         40.21590        33.09051         0.12634
C         39.05519        33.86656         0.37731
C         40.21687        35.98248        -0.29415
C         39.01435        35.26742         0.08427
C         40.20394        37.37582        -0.41491
C         38.99336        38.10663        -0.26645
C         40.25919        40.27200        -0.35211
C         38.99590        39.53659        -0.31317
C         40.27797        41.67612        -0.24470
C         39.02674        42.43736        -0.12924
C         40.26750        44.57306        -0.39850
C         39.02598        43.88117        -0.43822
C         40.30023        45.99020        -0.40206
C         39.06388        46.76350        -0.60643
C         40.27044        48.85491        -0.08595
C         39.03527        48.18376        -0.22386
C         40.27284        50.25458         0.28171
C         39.03504        50.93422         0.49538
C         40.24898        52.85842         1.39743
C         39.06777        52.25971         1.02709
C         42.84440        20.23734         0.82552
C         41.60809        20.87068         1.39142
C         42.83454        23.05819         1.18219
C         41.60483        22.37518         1.26204
C         42.86043        24.47057         1.64774
C         41.57429        25.30450         1.60957
C         42.68920        27.25838         0.04305
C         41.54340        26.58790         0.75428
C         42.69782        28.76301         0.04406
C         41.53029        29.50723         0.32859
C         42.68138        31.57515        -0.30271
C         41.49653        30.92832         0.14864
C         42.66814        33.01069        -0.68216
C         41.36156        33.77864        -0.52023
C         42.66462        35.89385        -0.73393
C         41.45116        35.24949        -0.49585
C         42.69084        37.35469        -0.97972
C         41.37441        38.12648        -1.01091
C         42.70982        40.24008        -0.40783
C         41.48250        39.56086        -0.51580
C         42.71997        41.67016        -0.23718
C         41.49761        42.40050        -0.26879
C         42.74015        44.52711        -0.14845
C         41.50898        43.83568        -0.25331
C         42.76821        45.96956        -0.15236
C         41.51656        46.69529        -0.22429
C         42.76685        48.82433        -0.23624
C         41.49366        48.11602        -0.18535
C         42.76608        50.34665         0.14597
C         41.48657        50.93570         0.53861
C         42.73543        52.79188         1.55391
C         41.49429        52.20599         1.16725
C         43.96152        20.96053         0.56361
C         45.23498        23.09694         0.40209
C         44.01596        22.38521         0.76952
C         45.23446        24.38426        -0.16987
C         44.03478        25.14807        -0.48557
C         45.23120        27.23937        -0.01263
C         43.96945        26.51855        -0.20057
C         45.22765        28.78182        -0.08663
C         43.91242        29.45707        -0.19839
C         45.12272        31.58181        -0.73485
C         43.87957        30.85157        -0.39189
C         45.14236        33.02854        -0.36121
C         43.91044        33.79430        -0.61138
C         45.19910        35.91817        -0.54367
C         43.93189        35.18451        -0.67002
C         45.22646        37.32128        -0.50263
C         43.99193        38.08858        -0.77848
C         45.16683        40.15283        -0.11346
C         43.97463        39.52906        -0.45038
C         45.14631        41.58681         0.24348
C         43.93270        42.37568        -0.02947
C         45.22512        44.49531         0.09522
C         43.96374        43.78680         0.00161
C         45.24693        45.92666         0.01691
C         43.99736        46.65835        -0.07752
C         45.22187        48.81779         0.05626
C         44.02736        48.09533        -0.07820
C         45.23273        50.20904         0.39749
C         44.01336        50.91435         0.64409
C         43.94027        52.14277         1.34719
C         47.70784        23.09496         0.40593
C         46.49730        22.46264         0.62755
C         47.77926        24.41505        -0.10502
C         46.50707        25.04455        -0.44110
C         47.75213        27.32398        -0.31978
C         46.49094        26.60199        -0.45561
C         47.71093        28.75403        -0.43766
C         46.46833        29.43102        -0.49685
C         47.68838        31.63311        -0.73794
C         46.42454        30.86493        -0.82559
C         47.70132        32.99008        -0.56039
C         46.45209        33.73687        -0.26097
C         47.67885        35.85870        -0.35976
C         46.45767        35.20944        -0.40158
C         47.77790        37.35546        -0.49936
C         46.44236        38.05490        -0.32373
C         47.68853        40.16923         0.04088
C         46.42482        39.43790        -0.10592
C         47.70870        41.58427         0.09347
C         46.46319        42.33269         0.32476
C         47.69140        44.48097         0.13961
C         46.44915        43.79499         0.15721
C         47.70216        45.90931         0.12336
C         46.47392        46.61736         0.03627
C         47.74704        48.77964         0.31281
C         46.51954        48.10481        -0.24197
C         47.68210        50.15527         0.61395
C         46.48684        50.84935         0.63325
C         50.25291        24.52581        -0.10878
C         48.98810        25.16885        -0.20421
C         50.20599        27.33389        -0.42261
C         48.96934        26.60715        -0.34713
C         50.17055        28.76155        -0.62731
C         48.94796        29.44521        -0.66300
C         50.19283        31.62572        -0.88487
C         48.91985        30.87758        -1.14847
C         50.17629        33.03052        -0.73050
C         48.94220        33.73648        -0.57003
C         50.17078        35.82686        -0.16611
C         48.93058        35.12977        -0.34735
C         50.21408        37.21409         0.47888
C         48.83158        37.97700         0.44013
C         50.14792        40.15477         0.00116
C         48.91495        39.46050         0.10591
C         50.15359        41.59525        -0.02916
C         48.93118        42.30706         0.06459
C         50.15494        44.45230         0.21951
C         48.92722        43.74915         0.14382
C         50.16743        45.88787         0.32307
C         48.95080        46.61391         0.24417
C         50.20431        48.69577         0.62317
C         48.95669        48.04521         0.38595
C         51.43068        25.23313        -0.19010
C         52.68739        27.37811        -0.48555
C         51.44259        26.64695        -0.35819
C         52.64886        28.79442        -0.70973
C         51.41448        29.48400        -0.78838
C         52.64595        31.64437        -0.99054
C         51.40961        30.91501        -0.89464
C         52.63634        33.06967        -0.88987
C         51.40742        33.75516        -0.65772
C         52.67266        35.83669         0.02804
C         51.37584        35.14360        -0.32590
C         52.60592        37.32036        -0.24535
C         51.41358        38.01337        -0.05938
C         52.60049        40.20408        -0.57833
C         51.36895        39.43068        -0.14788
C         52.61816        41.62037        -0.07908
C         51.39650        42.31690         0.01659
C         52.62532        44.43257         0.35812
C         51.39078        43.73523         0.20832
C         52.63993        45.85239         0.53685
C         51.40883        46.57727         0.50734
C         51.38133        47.99390         0.66494
C         55.13076        27.44005        -0.55788
C         53.93813        26.73642        -0.40190
C         55.12530        28.82024        -0.80942
C         53.87891        29.51850        -0.87425
C         55.10902        31.60465        -1.45863
C         53.86058        30.91812        -1.09983
C         55.10676        33.16351        -1.37856
C         53.86493        33.81858        -0.92420
C         55.13733        35.87304        -0.49556
C         53.89660        35.15979        -0.55299
C         55.12783        37.26671        -0.32164
C         53.87095        38.01156        -0.70326
C         55.06500        40.12568        -0.02635
C         53.88963        39.47094        -0.34191
C         55.08705        41.57555         0.14794
C         53.84978        42.29200         0.13402
C         55.08750        44.39018         0.54263
C         53.85103        43.70567         0.35552
C         55.07578        45.80486         0.73675
C         53.89640        46.50564         0.72997
C         56.35970        29.53968        -1.01142
C         56.36485        30.85415        -1.34663
C         56.36974        33.87095        -1.14518
C         56.37265        35.14391        -0.68271
C         56.29222        37.99861         0.02748
C         56.27641        39.36303         0.16127
C         56.28856        42.28412         0.33425
C         56.29587        43.66128         0.52171
O         45.75600        33.26461         0.95922
O         43.82209        24.92427         2.26134
O         38.71546        31.32647         2.41897
O         38.37785        46.49125        -1.88818
O         41.78314        33.24880        -1.82634
O         45.64959        31.24382        -2.06797
O         31.95003        35.65397         1.78493
O         45.36023        28.02896         1.19247
O         43.49901        37.74595        -2.15019
O         38.22614        42.17792         1.11680
O         42.81868        49.88417        -1.23771
O         30.40490        45.23795         1.17131
O         31.49918        43.20243        -1.82889
O         55.01199        32.45651        -2.64910
O         35.14426        28.07673         2.37415
O         35.82954        33.77100         2.30953
O         41.58870        26.60620        -0.73508
O         45.75497        41.88507         1.54412
O         46.43555        25.82659        -1.68416
O         50.53497        36.96452         1.83731
O         52.44513        40.30446        -2.06977
H         53.08217        40.98621        -2.37626
O         34.07956        46.45654         1.83842
H         34.88865        46.88710         2.18806
O         41.44422        25.79120         2.97165
H         42.35697        25.96005         3.30194
O         34.87447        37.23065        -1.59681
H         35.66566        36.91635        -2.08234
O         29.84384        37.55691         1.63889
H         30.45854        36.99468         2.16797
O         36.71211        42.24464        -2.20809
H         35.92957        42.64381        -2.64419
O         48.28681        37.93782         1.76595
H         49.03327        37.56799         2.32610
O         42.97552        24.45303        -0.95309
H         42.23504        25.09043        -1.14272
O         41.62525        20.59721         2.84905
H         40.83042        21.02682         3.23175
O         52.83903        35.75000         1.47691
H         51.99387        36.15800         1.86299
O         31.48881        46.96583        -1.84946
H         32.27973        47.47073        -2.13394
O         41.00430        38.26286        -2.42111
H         41.85287        38.31489        -2.92196
O         53.79878        37.92777        -2.17797
H         53.17899        38.64636        -2.46725
O         48.23302        37.63240        -1.85826
H         47.57708        37.25690        -2.48273
O         34.40508        38.19213         1.88864
H         33.67743        38.65192         2.35707
O         29.75234        37.93889        -2.00638
H         29.12571        38.37148        -2.62361
O         38.39096        33.75684         2.58815
H         37.63441        33.61029         3.19997
O         46.67550        48.20656        -1.71445
H         45.81173        47.97090        -2.11645
O         48.82689        30.77458        -2.62308
H         47.89410        30.56009        -2.84527
O         40.76881        29.16446         2.52727
H         40.23515        29.92944         2.84083
H         27.35551        26.79868        -1.37014
H         26.13692        28.91077        -1.68147
H         26.05538        31.36008        -1.59741
H         25.95752        33.21042        -1.37221
H         25.83361        35.61734        -1.20199
H         25.73077        37.53727        -0.88254
H         25.70129        39.95323        -0.78154
H         25.65047        41.86556        -0.41376
H         25.65476        44.32123        -0.31565
H         26.85455        46.46573        -0.39549
H         29.41112        25.58559        -0.80420
H         28.91856        47.78512        -0.36389
H         33.07181        23.48691        -0.11753
H         31.01654        24.69119        -0.55705
H         32.79933        49.88761         0.63281
H         30.68915        48.72936         0.34074
H         34.55264        22.55065         0.58354
H         34.42255        50.86176         0.25655
H         36.62571        21.31629         0.82105
H         36.53542        52.03949         0.43464
H         40.35649        19.16238         0.65395
H         38.28888        20.43466         0.43567
H         40.24350        53.85416         1.86319
H         38.12707        52.79703         1.20625
H         42.83256        19.15113         0.65134
H         42.72242        53.76464         2.06562
H         44.84476        20.45833         0.14204
H         44.86072        52.60885         1.72485
H         48.63216        22.56525         0.67494
H         46.50546        21.46071         1.07847
H         48.59514        50.70000         0.89018
H         46.50508        51.91929         0.87886
H         50.29726        23.43319        -0.00432
H         50.24057        49.78673         0.73758
H         52.37641        24.67826        -0.13842
H         52.31569        48.54828         0.81973
H         56.09057        26.90777        -0.49320
H         53.99484        25.65654        -0.21283
H         56.03069        46.32941         0.88472
H         53.93147        47.59287         0.87696
H         57.30522        28.98210        -0.94117
H         57.31121        31.35959        -1.58203
H         57.31670        33.37341        -1.39424
H         57.33088        35.66447        -0.55013
H         57.22270        37.45780         0.24990
H         57.19840        39.87333         0.46577
H         57.25032        41.75520         0.32717
H         57.24850        44.19187         0.66003
