         210
 CSIRO Nanostructure Databank - Neutral Graphene Oxide Data Set
C         31.54194        32.45080         3.31207
C         31.72643        33.61219         3.67536
C         31.62881        36.87302         3.31008
C         31.39031        37.99669         2.76915
C         30.79674        40.57851         1.00870
C         30.50798        41.59722         0.32929
C         33.01685        29.34908         1.70399
C         32.14107        30.07335         2.20453
C         33.69533        31.57957         3.00665
C         32.33648        31.33031         2.88647
C         33.97368        33.85441         3.13981
C         32.83575        34.65253         3.75788
C         33.38652        36.31092         1.88279
C         32.57146        35.90628         2.99562
C         33.20447        37.62585         1.31801
C         32.16794        38.53608         1.73885
C         32.92589        40.30894         0.13489
C         31.95665        39.77599         1.02084
C         32.73412        41.51702        -0.60404
C         31.42994        42.18087        -0.56939
C         32.28182        43.68000        -2.24340
C         31.38322        43.26326        -1.46602
C         35.37715        27.57955         0.22427
C         35.47280        28.87686         0.81918
C         34.47314        29.51042         1.69515
C         35.99344        31.74214         1.89202
C         34.78718        30.87064         2.31703
C         35.69312        33.20683         1.37927
C         34.66710        34.11219         1.98303
C         35.17318        35.85097         0.27604
C         34.42919        35.43326         1.37809
C         34.84502        37.08992        -0.32649
C         34.04221        38.06057         0.24701
C         35.26619        40.14379        -0.89630
C         34.24424        39.56952         0.08875
C         35.16860        41.46180        -1.30767
C         33.82194        42.06349        -1.39752
C         35.58190        44.26260        -2.66603
C         33.58751        43.13025        -2.28256
C         35.74098        45.64571        -2.94950
C         37.73454        27.38828        -0.47591
C         36.40387        27.04723        -0.30195
C         37.97399        28.70859         0.30689
C         36.73419        29.49399         0.71463
C         37.89383        31.56184         0.26515
C         36.86794        30.91244         0.93394
C         37.70786        32.97675        -0.05933
C         36.53259        33.73392         0.42692
C         37.69251        35.87028        -0.40729
C         36.32666        35.06218        -0.32757
C         37.75511        37.32877        -0.57307
C         36.65734        38.07386        -0.99035
C         37.76898        40.18898        -0.77573
C         36.57338        39.48403        -0.89331
C         37.72641        41.65625        -0.82289
C         36.42180        42.31114        -1.28928
C         37.80616        44.40816        -1.57654
C         36.59601        43.67115        -1.88553
C         37.90864        45.81218        -1.86234
C         36.74915        46.26040        -2.51486
C         40.00331        24.66863        -1.60778
C         38.98174        25.34495        -1.32883
C         40.17714        27.33954        -0.99006
C         38.87159        26.69638        -0.92797
C         40.23948        28.76564        -0.80192
C         39.06518        29.49267        -0.35972
C         40.20602        31.64869        -0.67254
C         39.02989        30.88137        -0.32874
C         40.23138        33.02772        -0.54603
C         38.94399        33.74797        -0.46378
C         40.21062        35.90096        -0.03046
C         38.89666        35.21317        -0.35623
C         40.22533        37.36814        -0.36447
C         38.99433        38.05701        -0.48666
C         40.22840        40.20089        -0.62373
C         38.99795        39.47821        -0.66720
C         40.22056        41.64295        -0.73212
C         39.01944        42.35866        -0.93398
C         40.25701        44.49028        -1.01557
C         39.02148        43.76181        -1.13495
C         40.28319        45.90090        -1.19197
C         39.08852        46.55031        -1.57786
C         40.08104        48.63470        -1.03522
C         39.20758        47.98717        -1.67566
C         42.59169        24.62009        -1.85761
C         41.31660        25.18966        -1.63212
C         42.62643        27.33421        -1.36006
C         41.36835        26.62477        -1.33917
C         42.66556        28.75958        -1.21293
C         41.43499        29.45632        -1.02841
C         42.70946        31.63651        -0.94533
C         41.40672        30.94202        -1.24850
C         42.70462        33.03997        -0.80268
C         41.45819        33.78330        -0.65225
C         42.66114        35.93031        -0.63544
C         41.45337        35.17409        -0.50422
C         42.69220        37.33376        -0.52207
C         41.44269        38.06278        -0.44823
C         42.68734        40.21093        -0.39912
C         41.44666        39.49342        -0.51707
C         42.65803        41.63585        -0.33838
C         41.44578        42.35672        -0.58025
C         42.66593        44.47869        -0.36307
C         41.46273        43.78179        -0.66529
C         42.85528        45.96012        -0.64858
C         41.58753        46.71066        -1.18036
C         42.19940        48.60469         0.43408
C         41.31257        48.19549        -0.52094
C         43.66243        25.27339        -1.81099
C         45.09969        27.34918        -1.51393
C         43.87670        26.65276        -1.58106
C         45.14238        28.77407        -1.28580
C         43.90856        29.47804        -1.19753
C         45.17111        31.62106        -0.91075
C         43.92988        30.91993        -1.02251
C         45.16938        33.05002        -0.82731
C         43.93477        33.73813        -0.81138
C         45.22967        35.95709        -0.80586
C         43.89988        35.19939        -0.93758
C         45.15666        37.38073        -0.47155
C         43.94383        38.06392        -0.47311
C         45.11451        40.24689        -0.05772
C         43.92073        39.51422        -0.30727
C         45.05997        41.63472         0.16093
C         43.84385        42.34611        -0.00851
C         44.91922        44.47912         0.69972
C         43.80425        43.78188         0.07829
C         44.72843        45.85349         1.07712
C         43.59925        46.58455         0.61292
C         43.14681        47.83245         0.86895
C         47.49047        27.39464        -1.39731
C         46.40783        26.80169        -1.58370
C         47.65455        28.78006        -1.11648
C         46.39603        29.47080        -1.10363
C         47.64692        31.55969        -0.67016
C         46.41569        30.88599        -0.88931
C         47.66763        33.02868        -0.67534
C         46.40950        33.78952        -0.68379
C         47.61976        35.87487        -0.01453
C         46.44466        35.17372        -0.51685
C         47.58548        37.26054         0.20947
C         46.43977        38.06367        -0.24765
C         47.54498        40.14665         0.75231
C         46.43064        39.55168        -0.03164
C         47.53080        41.61554         0.91981
C         46.28396        42.39138         0.52281
C         47.16933        44.34629         1.78905
C         46.10376        43.76623         1.04199
C         46.84881        45.67584         2.15925
C         45.80730        46.31395         1.86967
C         50.12388        28.86204        -0.54377
C         48.85451        29.44053        -0.77496
C         50.06057        31.49970         0.04953
C         48.87673        30.85503        -0.50624
C         50.01505        32.88701         0.40229
C         48.93375        33.74147        -0.11869
C         49.84649        35.73855         1.08164
C         48.79629        35.12793         0.33336
C         49.82319        37.15097         1.33549
C         48.85132        38.01216         0.56250
C         49.68456        40.03187         1.94575
C         48.62509        39.40451         1.15844
C         49.60175        41.42908         2.31878
C         48.51067        42.22829         1.83804
C         49.38989        44.03811         3.00966
C         48.33460        43.59725         2.17536
C         51.15390        29.35225        -0.02452
C         52.19447        31.41894         1.14748
C         51.23903        30.70482         0.39131
C         52.05806        32.61726         1.49881
C         51.01428        33.52259         1.19894
C         51.84053        35.65293         2.32271
C         50.93295        34.90522         1.54303
C         51.78662        36.88048         2.57997
C         50.81162        37.79689         2.10657
C         51.67430        39.94411         3.16342
C         50.76309        39.21055         2.37918
C         51.66884        41.14967         3.51964
C         50.63085        42.03972         3.16170
C         50.38831        43.40637         3.43335
O         38.01493        33.21801        -1.48654
O         35.53397        37.42559        -1.49527
O         47.41462        42.27485        -0.40168
O         48.69392        33.57463        -1.55542
O         35.09448        29.61573         3.03211
O         44.62735        35.67210        -2.11430
O         46.83332        39.01985        -1.34930
O         34.53442        43.54240        -3.20486
O         34.15639        32.63885         3.80403
O         36.83354        42.31634         0.14264
O         41.24075        31.06988        -2.71555
H         41.10156        32.02048        -2.91698
O         41.85306        47.01564        -2.56031
H         41.08174        47.50901        -2.91736
O         33.11681        34.97123         5.11347
H         33.34584        34.13952         5.57905
O         34.91992        39.89880         1.36276
H         35.25556        40.82193         1.30194
O         38.54504        28.24757         1.58081
H         37.83570        27.78231         2.07498
O         49.50176        38.28672        -0.72613
H         48.80960        38.68545        -1.30956
O         43.88455        46.01785        -1.64071
H         43.59667        46.63142        -2.35533
O         40.29690        35.82252         1.44543
H         39.59786        36.40418         1.81394
O         35.90181        34.74047        -1.66235
H         36.60961        34.18624        -2.07245
O         36.80434        31.92418         3.07636
H         36.81574        31.07084         3.56211
