         630
 CSIRO Nanostructure Databank - Neutral Graphene Oxide Data Set
C         23.15860        27.50020         1.21547
C         23.20905        28.84722         1.52417
C         23.46726        31.45673         2.90252
C         23.60068        32.72674         3.45654
C         23.53964        36.47442         3.07517
C         23.28622        37.55158         2.28595
C         22.90671        40.02252         0.80624
C         22.82316        41.40240         0.72316
C         22.84308        45.13641        -0.53105
C         22.94277        46.22339        -1.37231
C         25.46961        24.62178         0.63821
C         24.31419        25.34499         0.78773
C         25.60899        27.38716         1.24876
C         24.34936        26.74376         1.08454
C         25.64027        28.76304         1.58289
C         24.45345        29.49105         1.73621
C         25.72274        31.63933         1.97307
C         24.53225        30.89492         2.18216
C         25.84314        32.96315         2.43892
C         24.78073        33.43650         3.23152
C         25.73095        36.00686         2.00327
C         24.74014        35.70854         2.91541
C         25.57528        37.24378         1.19303
C         24.24680        37.98766         1.26305
C         25.34149        40.18011         0.63253
C         24.17591        39.42808         0.87769
C         25.27339        41.58607         0.40706
C         23.99656        42.15720         0.58790
C         25.28744        44.74863        -0.61910
C         24.01034        44.43214        -0.15606
C         25.39905        45.99705        -1.30576
C         24.22954        46.71591        -1.69937
C         25.58419        48.59644        -2.40460
C         24.36326        47.97657        -2.35098
C         27.98117        23.08191         0.35940
C         27.97171        24.50805         0.50038
C         26.75692        25.24359         0.72374
C         28.07689        27.29985         1.03436
C         26.82193        26.63402         1.02618
C         28.17531        28.70930         1.47549
C         26.92978        29.47772         1.92032
C         28.18049        31.66534         1.37844
C         26.87002        30.90845         1.31615
C         28.22630        33.07154         1.58447
C         27.12501        33.79929         2.34294
C         28.09303        35.95171         1.42936
C         26.97842        35.26507         1.86481
C         28.04596        37.40156         1.14424
C         26.79603        38.03204         0.94325
C         27.82244        40.27163         0.30380
C         26.67600        39.55238         0.97016
C         27.80935        41.74179         0.14975
C         26.47602        42.37865        -0.07968
C         27.81693        44.54327        -0.64413
C         26.49083        43.84642        -0.53939
C         27.86501        45.91887        -1.00399
C         26.67782        46.62803        -1.42284
C         27.96701        48.71846        -1.67502
C         26.74513        47.97052        -1.85873
C         28.00721        50.12208        -1.83693
C         30.40990        23.03773         0.04068
C         29.13942        22.37903         0.15123
C         30.41021        24.48049         0.09861
C         29.20716        25.20470         0.37710
C         30.41243        27.38992         0.23389
C         29.23736        26.63523         0.58268
C         30.48393        28.78341         0.36639
C         29.38944        29.49122         1.05803
C         30.54752        31.67653         0.74441
C         29.34637        30.97640         1.02272
C         30.57166        33.09653         0.85048
C         29.39700        33.77474         1.28601
C         30.52189        35.93751         0.71017
C         29.44775        35.26544         1.54396
C         30.51629        37.44275         0.70323
C         29.25560        38.15744         1.06106
C         30.20861        40.52132         0.81589
C         29.15651        39.56822         0.58584
C         30.27894        41.79380         0.25940
C         29.00881        42.42674        -0.08255
C         30.29716        44.49964        -0.54652
C         29.03292        43.83879        -0.42986
C         30.32886        45.91701        -0.78092
C         29.10989        46.61793        -1.01431
C         30.34819        48.77498        -1.07975
C         29.14148        48.03402        -1.25743
C         30.35319        50.19006        -1.19839
C         29.16025        50.84334        -1.57662
C         32.85441        20.25815        -0.61456
C         31.72444        20.89451        -0.19361
C         32.91840        23.07913        -0.05316
C         31.61632        22.32954        -0.15947
C         32.82645        24.54123        -0.40145
C         31.60959        25.19718        -0.21540
C         32.81540        27.42319        -0.65797
C         31.51837        26.65822        -0.39775
C         32.86135        28.83711        -0.26383
C         31.68949        29.52024         0.12709
C         32.94101        31.65720         0.25260
C         31.73474        30.95267         0.37580
C         32.98897        33.08316         0.30226
C         31.79723        33.80444         0.56728
C         32.93275        35.92081         0.02911
C         31.80963        35.23033         0.50018
C         32.93984        37.37479        -0.01289
C         31.84019        38.08171         0.54363
C         33.03593        40.21515         0.23021
C         32.06705        39.43468         0.84364
C         32.94720        41.74381         0.34888
C         31.56053        42.44653         0.07591
C         32.79450        44.46666        -0.74803
C         31.53655        43.76104        -0.38677
C         32.82606        45.95767        -0.85727
C         31.54791        46.67283        -0.77211
C         32.82402        48.80592        -0.78476
C         31.57230        48.07096        -0.83878
C         32.82324        50.19231        -0.84626
C         31.58502        50.92374        -0.96471
C         32.78898        53.00853        -0.48017
C         31.59665        52.30740        -0.79512
C         35.22201        19.06616        -2.13389
C         35.26347        20.32559        -1.53737
C         33.94208        21.04146        -1.30551
C         35.29126        23.08352        -0.77771
C         34.09769        22.40104        -0.69471
C         35.29288        24.52835        -0.68396
C         34.05444        25.24447        -0.63302
C         35.28842        27.36909        -0.79389
C         34.07279        26.66172        -0.70296
C         35.27704        28.79675        -0.67311
C         34.12098        29.48322        -0.27871
C         35.47834        31.66129        -0.10087
C         34.19270        30.89965         0.11632
C         35.42130        33.12042        -0.25763
C         34.20402        33.79899        -0.02057
C         35.32624        35.90514        -0.64069
C         34.16324        35.21418        -0.22710
C         35.20624        37.33088        -1.12201
C         34.08449        38.09137        -0.43839
C         35.28230        40.23367        -0.81003
C         34.10401        39.50971        -0.40111
C         35.30466        41.62269        -0.69410
C         33.97175        42.32284        -0.64558
C         35.25352        44.49416        -0.36744
C         34.08391        43.80533        -0.49188
C         35.28244        45.94782        -0.36362
C         34.08875        46.67516        -0.59218
C         35.29592        48.79026        -0.38412
C         34.07975        48.08452        -0.59941
C         35.33266        50.23490        -0.45028
C         34.11815        50.96507        -0.96885
C         35.25779        53.10940        -0.21315
C         34.02282        52.39049        -0.46937
C         35.27243        54.50364         0.00737
C         37.60708        19.16052        -2.49081
C         36.39102        18.50402        -2.66181
C         37.75001        20.34815        -1.73381
C         36.51731        20.99022        -1.37696
C         37.76440        23.05053        -0.90672
C         36.54204        22.38160        -1.01734
C         37.76080        24.49745        -0.76512
C         36.51673        25.21870        -0.79826
C         37.77035        27.31878        -0.94574
C         36.53236        26.64600        -0.86860
C         37.80300        28.75653        -1.20791
C         36.48724        29.54950        -1.01415
C         37.80762        31.64626        -0.93222
C         36.61520        30.96283        -0.70776
C         37.83125        33.08913        -0.85091
C         36.59942        33.80508        -0.63039
C         37.79152        35.93771        -1.00820
C         36.56554        35.22890        -0.77665
C         37.76471        37.37804        -1.14998
C         36.52809        38.05718        -1.13665
C         37.76632        40.30996        -1.40408
C         36.47614        39.51789        -1.27025
C         37.75347        41.70077        -0.89460
C         36.52023        42.35101        -0.68949
C         37.78205        44.51109        -0.34248
C         36.52291        43.73391        -0.07366
C         37.77368        45.93042        -0.15779
C         36.49902        46.64625        -0.12165
C         37.69163        48.80639         0.26443
C         36.47628        48.06239        -0.09041
C         37.75043        50.25990         0.03869
C         36.50515        50.94676        -0.24866
C         37.71052        53.11749        -0.07073
C         36.50016        52.41171        -0.21649
C         37.70583        54.52348         0.10147
C         36.46487        55.19172         0.17079
C         40.77268        15.96863        -2.03423
C         39.77398        16.67336        -2.68253
C         40.47261        18.80176        -1.59533
C         39.63785        18.05416        -2.46193
C         40.28926        20.22118        -1.29637
C         39.04314        20.94826        -1.39536
C         40.21677        23.01182        -0.65448
C         39.01284        22.32291        -0.98554
C         40.16711        24.44600        -0.17370
C         38.95633        25.20110        -0.62974
C         40.23159        27.33843        -0.76093
C         38.99255        26.62251        -0.75084
C         40.25313        28.76367        -0.91120
C         39.04491        29.50108        -1.04902
C         40.27824        31.62666        -1.07556
C         39.04267        30.91200        -1.09106
C         40.28470        33.05479        -1.09772
C         39.03988        33.78360        -1.03110
C         40.25054        35.94465        -1.14149
C         39.03266        35.23431        -1.06268
C         40.23987        37.37481        -1.17077
C         39.00604        38.07767        -1.24187
C         40.26412        40.21271        -0.92200
C         39.08412        39.55443        -1.58638
C         40.20121        41.59491        -0.48593
C         38.96514        42.37422        -0.60730
C         40.25860        44.49752        -0.48023
C         39.00070        43.79479        -0.43602
C         40.21972        45.98215        -0.74839
C         38.98542        46.62927        -0.17702
C         40.27164        48.80506         0.04988
C         39.04518        48.02836         0.21181
C         40.22810        50.21879         0.14697
C         38.96340        50.92727         0.07514
C         40.21567        53.11017         0.28796
C         39.01746        52.39545        -0.29179
C         40.17305        54.47796         0.48608
C         38.96610        55.24719         0.25808
C         40.25699        57.34247         0.39597
C         39.03602        56.63263         0.21588
C         42.79734        15.97345        -0.64692
C         41.71272        16.67241        -1.24449
C         42.65570        18.77825        -0.38959
C         41.60000        18.08804        -1.06957
C         42.59023        20.18777        -0.30553
C         41.43615        20.88846        -0.73525
C         42.65727        23.02581        -0.23458
C         41.42101        22.31473        -0.53314
C         42.63505        24.46627        -0.30518
C         41.45982        25.18528        -0.39165
C         42.68278        27.30152        -0.69427
C         41.47043        26.62100        -0.57661
C         42.71113        28.70608        -1.10650
C         41.47589        29.48217        -1.00938
C         42.75762        31.61213        -0.99707
C         41.50581        30.89440        -1.07439
C         42.74729        33.05079        -0.99032
C         41.52461        33.74337        -1.11333
C         42.76728        35.90259        -0.88051
C         41.54458        35.21599        -1.43052
C         42.69413        37.35176        -0.71585
C         41.47360        38.09633        -1.06536
C         42.74079        40.25290        -0.84117
C         41.49146        39.52700        -0.91762
C         42.77230        41.64560        -0.70095
C         41.53523        42.36414        -0.34331
C         42.72764        44.54116        -0.54548
C         41.48513        43.83201        -0.48657
C         42.72527        45.97727        -0.43549
C         41.50446        46.68910        -0.39237
C         42.73746        48.79249        -0.08481
C         41.51042        48.09386        -0.16232
C         42.73345        50.21000         0.42095
C         41.44359        50.95470         0.20194
C         42.69756        53.04610         0.46423
C         41.45813        52.37061         0.35279
C         42.72236        54.47224         0.77553
C         41.39551        55.21526         0.85268
C         42.69192        57.34580         0.94622
C         41.42531        56.68035         0.69749
C         43.78593        16.64822         0.04157
C         44.88775        18.77113         0.75629
C         43.76528        18.05676         0.15628
C         44.94184        20.18687         0.68484
C         43.64133        20.91235         0.50189
C         45.11344        22.98778         0.29155
C         43.82846        22.35104         0.12942
C         45.17498        24.38448        -0.18850
C         43.90769        25.16689        -0.10722
C         45.24182        27.33756        -0.45896
C         43.93840        26.64930        -0.32110
C         45.25016        28.73667        -0.62048
C         44.03956        29.46592        -1.03523
C         45.20523        31.62699        -0.67361
C         43.97677        30.92214        -0.87044
C         45.20283        33.07601        -0.69114
C         43.99402        33.76975        -0.84338
C         45.22318        35.94146        -0.56760
C         43.96828        35.22287        -0.75189
C         45.26021        37.35109        -0.64331
C         44.00081        38.11139        -0.63979
C         45.29654        40.22805        -1.13315
C         43.97262        39.48104        -1.28098
C         45.26579        41.73322        -0.96061
C         43.97154        42.41540        -0.78276
C         45.20626        44.54133        -0.48095
C         43.96199        43.82319        -0.59451
C         45.20471        45.96155        -0.36335
C         43.96701        46.67781        -0.34084
C         45.21227        48.81289        -0.21169
C         43.97271        48.10270        -0.21813
C         45.18178        50.30500        -0.44547
C         43.95373        51.00121         0.05143
C         45.20790        53.12572         0.25081
C         43.95033        52.37254         0.20606
C         45.21606        54.50759         0.46982
C         43.92100        55.28199         0.31184
C         43.87205        56.68792         0.86436
C         46.91650        18.77872         2.06585
C         45.92837        18.06814         1.40178
C         46.97656        20.17008         1.92317
C         46.08792        20.91729         1.12155
C         47.56331        23.09636         0.83660
C         46.27082        22.35423         0.78925
C         47.64551        24.43973         0.39773
C         46.46146        25.14513        -0.13764
C         47.64301        27.34764        -0.03340
C         46.43238        26.63158        -0.18777
C         47.63262        28.75643        -0.11410
C         46.44457        29.47050        -0.42055
C         47.66996        31.64363        -0.59635
C         46.40207        30.91093        -0.51974
C         47.67476        33.10857        -0.46415
C         46.45111        33.79539        -0.51874
C         47.67867        35.93385        -0.26563
C         46.44781        35.22623        -0.45186
C         47.69047        37.36410        -0.29529
C         46.47958        38.07441        -0.56664
C         47.69402        40.22274        -0.45831
C         46.50771        39.50262        -0.69892
C         47.69276        41.67163        -0.40915
C         46.48672        42.40988        -0.52062
C         47.65484        44.55620        -0.22372
C         46.44850        43.83613        -0.38124
C         47.67145        45.96465        -0.24506
C         46.43808        46.67593        -0.26905
C         47.69523        48.81012        -0.22357
C         46.43820        48.11290        -0.22661
C         47.68622        50.27953        -0.29204
C         46.44766        51.01713        -0.05582
C         47.70155        53.09073         0.46188
C         46.45864        52.39257         0.19137
C         47.64502        54.48878         0.70637
C         46.45030        55.17817         0.67286
C         50.15304        20.58662         2.13627
C         48.96723        21.30260         1.98724
C         50.10427        23.13326         0.94557
C         48.84890        22.49824         1.23896
C         50.12728        24.53414         0.58755
C         48.87563        25.20510         0.39754
C         50.11873        27.33647         0.14661
C         48.88337        26.61313         0.18419
C         50.14335        28.75532         0.09050
C         48.86125        29.51890         0.28530
C         50.15814        31.65050        -0.06504
C         48.92856        30.88746        -0.34350
C         50.10882        33.06181        -0.01315
C         48.90379        33.78664        -0.18884
C         50.09709        35.94928         0.22568
C         48.89796        35.22511        -0.06755
C         50.06560        37.36279         0.30281
C         48.89083        38.07935        -0.03039
C         50.08830        40.23933         0.13799
C         48.90354        39.52588        -0.09794
C         50.12000        41.65766         0.00951
C         48.91235        42.35451        -0.17096
C         50.14733        44.49323        -0.52676
C         48.93187        43.83227         0.10983
C         50.15635        45.97750        -0.23125
C         48.93558        46.67850        -0.19861
C         50.17999        48.80930         0.00268
C         48.92586        48.11469        -0.16372
C         50.21668        50.21243         0.22488
C         49.01753        51.02232        -0.01333
C         50.13474        52.93372         1.04287
C         48.94103        52.38679         0.50854
C         51.33549        21.11903         1.62548
C         52.64233        23.10846         0.98689
C         51.32912        22.41906         1.11353
C         52.63892        24.59322         0.72224
C         51.34394        25.24920         0.46900
C         52.60786        27.35656         0.06657
C         51.36483        26.63775         0.20132
C         52.61061        28.76787        -0.03360
C         51.35287        29.47379         0.02448
C         52.61602        31.63175        -0.16457
C         51.34726        30.90976         0.00995
C         52.60503        33.11829        -0.03420
C         51.34251        33.75286         0.50121
C         52.56859        35.90462         0.45177
C         51.35492        35.24806         0.35637
C         52.57797        37.34116         0.77112
C         51.26284        38.08138         0.78618
C         52.59207        40.24838         0.53168
C         51.25583        39.60438         0.85376
C         52.60288        41.64591         0.31750
C         51.37976        42.37619         0.09960
C         52.63539        44.47952        -0.12388
C         51.42045        43.77044        -0.13097
C         52.64106        45.93106        -0.17229
C         51.39224        46.65690        -0.13214
C         52.64548        48.75713         0.21885
C         51.40257        48.07173         0.04600
C         52.65769        50.14447         0.55243
C         51.40348        50.86579         0.62912
C         51.32640        52.22818         1.04200
C         55.02540        23.06661         0.36886
C         53.87543        22.39212         0.63017
C         55.08570        24.51128         0.25702
C         53.88325        25.24505         0.27426
C         55.08233        27.33432        -0.20881
C         53.85880        26.64378         0.02847
C         55.08956        28.78053        -0.22928
C         53.85680        29.48463        -0.10239
C         55.08556        31.62884         0.07932
C         53.88916        30.91052        -0.05690
C         55.09113        33.08424         0.23782
C         53.87979        33.81217         0.22912
C         55.06624        35.92312         0.55034
C         53.84672        35.20660         0.42665
C         55.05641        37.37151         0.63861
C         53.84660        38.08973         0.68892
C         55.06240        40.22462         0.63517
C         53.82018        39.52120         0.63469
C         55.06661        41.66049         0.52931
C         53.84587        42.35822         0.30386
C         55.10521        44.45988         0.08738
C         53.87194        43.76883         0.08956
C         55.13247        45.87044        -0.44051
C         53.85161        46.63099        -0.16261
C         55.10299        48.77311         0.05705
C         53.87733        48.05085         0.02529
C         55.09246        50.11774         0.44270
C         53.90030        50.78713         0.71610
C         57.59591        24.53447         0.07293
C         56.32260        25.20246         0.01302
C         57.54818        27.27882        -0.58627
C         56.29348        26.59359        -0.25010
C         57.56050        28.84374        -0.57506
C         56.30023        29.51959        -0.25749
C         57.57061        31.60397         0.15030
C         56.32865        30.91466         0.01302
C         57.55992        33.00947         0.71778
C         56.29788        33.78763         0.44492
C         57.55010        35.92986         0.63027
C         56.29783        35.20310         0.54789
C         57.54125        37.35654         0.68797
C         56.29987        38.07673         0.67463
C         57.53199        40.20420         0.83682
C         56.29340        39.49976         0.71438
C         57.49563        41.66353         1.03413
C         56.27102        42.39374         0.66728
C         57.55371        44.53632         0.51736
C         56.30537        43.79339         0.43095
C         57.54137        45.96650         0.30398
C         56.37536        46.63356        -0.07902
C         57.64035        48.80757        -0.05587
C         56.37295        48.09813        -0.43607
C         58.78624        25.20775        -0.05825
C         60.00592        27.34934        -0.39672
C         58.82450        26.60584        -0.34902
C         60.00980        28.75894        -0.38855
C         58.83751        29.51729        -0.32991
C         60.01262        31.68352         0.10292
C         58.80743        30.93105        -0.00211
C         60.00434        33.06926         0.26264
C         58.81961        33.79221         0.45468
C         59.99608        35.97730         0.61830
C         58.79019        35.22478         0.57102
C         59.98762        37.35143         0.71658
C         58.77189        38.08280         0.73752
C         59.98728        40.28682         0.75338
C         58.75837        39.52286         0.82124
C         60.01962        41.64369         0.79202
C         58.81203        42.43171         1.06727
C         59.96702        44.64294         0.91272
C         58.77726        43.89430         0.79868
C         59.95443        46.03136         0.78301
C         58.76565        46.70617         0.48573
C         58.75134        48.14143         0.33046
O         57.50156        28.06680        -1.81079
O         48.49505        31.05557        -1.71601
O         58.11376        42.08258         2.30798
O         23.82079        43.50579         0.86261
O         26.34347        42.73669        -1.51179
O         38.33902        48.33909         1.47023
O         36.99761        29.18989        -2.34477
O         31.86940        27.12439        -1.74217
O         24.54981        37.10513         0.13327
O         45.49625        41.09455        -2.29911
O         35.12647        31.15074         1.24271
O         29.25946        28.94145         2.44394
O         48.49534        50.85033        -1.37983
O         28.53689        39.61339        -0.75935
O         42.12519        54.78820         2.06276
O         45.94859        24.55923        -1.41704
O         40.85781        41.83504         0.82467
O         43.23997        37.90839         0.57231
O         30.13369        36.61063        -0.50804
O         52.79402        24.06665         2.09837
O         43.49911        28.98254        -2.31937
O         51.81279        37.54778         2.04187
O         43.86207        26.05728         1.06097
O         24.91702        34.68594         3.86763
O         36.92598        40.09737        -2.58206
O         38.68199        18.68455        -3.25471
O         32.81865        45.10413        -2.07957
O         31.19463        40.11423         1.71854
O         52.53806        32.54101        -1.36333
O         47.88585        20.83440         2.73807
O         40.01253        24.36013         1.29304
H         40.80008        23.89046         1.64312
O         49.11410        43.97282         1.55396
H         48.41278        43.45693         2.00377
O         26.96835        29.60129         3.35576
H         27.91778        29.54705         3.61944
O         45.12731        50.43842        -1.92756
H         46.04079        50.31527        -2.26754
O         51.01375        39.95933         2.25675
H         51.44759        39.25242         2.79234
O         36.51978        43.51633         1.38531
H         37.37377        43.09750         1.62590
O         48.74548        29.78507         1.72784
H         48.78273        28.92375         2.19522
O         33.36390        42.08814        -1.94748
H         33.84944        42.60972        -2.62048
O         34.35722        51.08791        -2.42768
H         33.57377        51.54123        -2.80672
O         43.07451        20.94432         1.88198
H         43.74523        21.36594         2.46148
O         39.39357        39.59788        -3.02130
H         38.52272        39.56960        -3.48516
O         43.80628        39.19998        -2.69876
H         44.16646        39.97861        -3.18457
O         41.69475        35.29087        -2.90241
H         40.93129        34.82088        -3.30067
O         43.71900        55.40129        -1.13771
H         44.52043        55.81486        -1.52159
O         33.23095        23.05889         1.40538
H         32.48809        23.50561         1.86576
O         34.78173        37.22673        -2.53712
H         35.53578        36.86028        -3.04590
O         39.23975        52.41308        -1.75067
H         38.44307        52.02754        -2.17425
O         40.08232        46.12876        -2.22357
H         40.87801        45.72318        -2.63013
O         26.86421        39.90686         2.39846
H         26.11284        39.53242         2.90583
O         56.29351        48.19215        -1.92603
H         57.18633        47.97635        -2.27216
O         29.87145        35.43982         2.92930
H         29.23658        34.91810         3.48403
O         33.33115        42.10932         1.68552
H         32.71284        41.66073         2.30262
O         42.81510        50.06518         1.90592
H         41.98575        49.62778         2.19846
O         27.63409        33.91193         3.71610
H         26.89730        34.28550         4.25422
O         33.40482        21.31497        -2.65808
H         34.08408        21.82654        -3.14736
O         57.54956        32.80595         2.19607
H         58.39397        32.36195         2.42672
O         55.16620        45.72355        -1.91622
H         55.36737        46.62991        -2.26623
O         50.00857        44.34726        -1.96735
H         50.78145        44.77468        -2.39232
O         51.38676        33.49596         1.94825
H         50.69983        34.04997         2.37582
O         26.58691        30.72777        -0.09905
H         26.48215        31.61130        -0.50986
H         22.18899        27.00272         1.06890
H         22.27398        29.41837         1.61066
H         22.55458        30.87498         3.08833
H         22.81039        33.16259         4.08063
H         22.84776        36.19139         3.87965
H         22.42253        38.19315         2.51178
H         21.99646        39.41652         0.90217
H         21.85897        41.92040         0.80001
H         21.87220        44.79466        -0.14963
H         22.04844        46.77090        -1.70070
H         25.39827        23.55072         0.40618
H         23.33736        24.85145         0.67944
H         25.66092        49.59495        -2.85424
H         23.46286        48.47768        -2.73397
H         27.03910        22.52432         0.44900
H         27.10575        50.66740        -2.14548
H         29.09444        21.28388         0.07538
H         29.14332        51.93477        -1.69916
H         32.91231        19.16009        -0.58648
H         30.87205        20.28820         0.15218
H         32.69791        54.07568        -0.23339
H         30.65756        52.87563        -0.82269
H         34.25740        18.56293        -2.28647
H         34.33079        55.06755         0.04207
H         36.35092        17.58337        -3.25769
H         36.43109        56.27581         0.34394
H         40.87805        14.88338        -2.16981
H         39.07855        16.17354        -3.36892
H         40.25465        58.43778         0.29927
H         38.13164        57.22106         0.00965
H         42.85175        14.88154        -0.76166
H         42.67349        58.41523         1.20847
H         44.61595        16.06827         0.46489
H         44.80491        57.23276         1.06887
H         47.65615        18.26993         2.69683
H         45.91080        16.97446         1.48332
H         48.57410        55.04859         0.87886
H         46.46482        56.26578         0.82561
H         50.15202        19.64729         2.70313
H         50.13209        53.95670         1.44395
H         52.28197        20.57775         1.75538
H         52.22812        52.72818         1.42055
H         55.93106        22.48667         0.14242
H         53.85975        21.29457         0.56290
H         56.03232        50.68157         0.51008
H         53.94372        51.84964         0.99011
H         57.62371        23.45823         0.28986
H         57.69359        49.89393        -0.21600
H         59.73676        24.66675         0.05876
H         60.96805        26.82293        -0.31198
H         60.98507        29.25767        -0.30052
H         60.97915        31.18383        -0.04217
H         60.96718        33.59476         0.19515
H         60.96481        35.46080         0.60195
H         60.94979        37.87589         0.77900
H         60.92945        39.75411         0.56682
H         60.96366        42.16698         0.58222
H         60.91001        44.13509         1.15567
H         60.88431        46.60336         0.91322
H         59.68417        48.69133         0.52831
