         762
 CSIRO Nanostructure Databank - Neutral Graphene Oxide Data Set
C         24.00644        24.39613         2.68831
C         22.85684        25.07329         3.09617
C         23.81494        27.20008         2.37552
C         22.75486        26.45066         2.94389
C         23.71494        28.62299         2.18066
C         22.53736        29.36201         2.60100
C         23.49657        31.53790         1.93444
C         22.42617        30.71153         2.51996
C         23.76533        32.96002         2.38532
C         22.92689        33.60135         3.43110
C         24.32666        35.64501         3.40477
C         23.17448        34.83944         3.88789
C         24.22478        37.12982         3.33773
C         23.19874        37.83748         3.89958
C         24.02317        40.03763         3.17064
C         23.12257        39.27749         3.85741
C         24.12428        41.55705         3.27389
C         22.87626        42.27332         3.70233
C         23.57649        44.30508         2.50490
C         22.67935        43.57317         3.35988
C         23.30908        45.71913         2.21696
C         22.40108        46.53845         3.00569
C         23.17789        48.64083         2.02965
C         22.29432        47.91740         2.81628
C         26.41455        22.97872         1.75128
C         26.29651        24.40036         1.70813
C         25.09383        25.09143         2.11965
C         26.10026        27.24842         1.41094
C         25.00362        26.51360         1.96602
C         25.99811        28.66441         1.26410
C         24.79540        29.32229         1.59763
C         25.74887        31.53572         0.69105
C         24.60674        30.76611         1.26438
C         25.88047        32.99211         0.96928
C         25.21588        33.45546         2.26179
C         26.19661        35.78829         1.63936
C         25.35878        34.96103         2.55285
C         26.17845        37.14664         1.67336
C         25.31935        37.85767         2.65530
C         25.84304        40.04416         1.40503
C         25.17359        39.35522         2.52935
C         25.40309        41.36230         1.14045
C         24.69215        42.19174         2.01350
C         25.69637        44.37856         1.19717
C         24.61850        43.62112         1.81369
C         25.69924        45.81952         1.25599
C         24.41110        46.51158         1.41207
C         25.67270        48.77568         1.32190
C         24.35894        48.01073         1.44131
C         25.78943        50.18926         1.75364
C         28.66069        22.96638         0.73606
C         27.50744        22.29998         1.24951
C         28.66376        24.44428         0.89869
C         27.38433        25.15094         1.18853
C         28.29933        27.24684         0.19550
C         27.28636        26.53877         1.01588
C         28.20311        28.73278         0.00562
C         27.25065        29.45970         0.93297
C         27.96270        31.50365        -0.44463
C         27.00479        30.83490         0.41481
C         27.82090        33.02063        -0.58078
C         26.90035        33.68132         0.38666
C         28.29527        35.83954         0.18385
C         27.21213        35.05822         0.83232
C         28.26241        37.31084         0.24122
C         26.93233        37.93143         0.59983
C         28.02200        40.18318         0.18921
C         26.94660        39.44477         0.74016
C         28.09665        41.61270         0.23669
C         26.94056        42.41413         0.29274
C         28.17612        44.40659         0.85832
C         26.91864        43.74543         0.76935
C         28.17560        45.82267         1.22154
C         26.89781        46.55991         1.21309
C         28.12091        48.71883         1.02646
C         26.94545        48.00288         1.24135
C         28.11809        50.20138         0.96490
C         26.93421        50.86587         1.56036
C         30.57062        20.24271        -0.95468
C         29.61648        20.88399        -0.21671
C         30.89875        22.97624        -0.44839
C         29.70234        22.28140         0.08129
C         30.92524        24.46837        -0.34620
C         29.80559        25.22048         0.30418
C         30.62306        27.35605        -0.66325
C         29.59699        26.63024        -0.10717
C         30.55477        28.79044        -0.87585
C         29.37932        29.48112        -0.51120
C         30.32738        31.58078        -1.35101
C         29.26284        30.86417        -0.76182
C         30.16576        33.01426        -1.70882
C         28.97786        33.78460        -1.18072
C         30.40722        35.96809        -1.20420
C         29.14640        35.23929        -0.88401
C         30.42487        37.38752        -0.96864
C         29.30675        38.02186        -0.33338
C         30.37485        40.32089        -0.70947
C         29.36389        39.48267         0.03706
C         30.53360        41.67553        -0.14623
C         29.35884        42.32593         0.25366
C         30.62858        44.44058         0.40400
C         29.37491        43.73352         0.53076
C         30.66254        45.84226         0.52116
C         29.47660        46.57608         0.97767
C         30.67539        48.76771         0.45125
C         29.36374        48.02034         0.65471
C         30.72484        50.21381         0.76875
C         29.43785        50.96797         0.78357
C         30.69522        52.97464         1.50134
C         29.52879        52.38496         1.20943
C         32.70296        18.71432        -2.10632
C         32.76533        20.15029        -2.09551
C         31.72229        20.90646        -1.52906
C         32.87999        23.07038        -2.04455
C         31.83026        22.32224        -1.41026
C         32.79216        24.47632        -2.04796
C         31.60039        25.19511        -1.47627
C         33.03017        27.37592        -1.55706
C         31.86372        26.62634        -1.03448
C         32.90646        28.84101        -1.70916
C         31.67188        29.52096        -1.38393
C         32.73581        31.68180        -2.04039
C         31.56164        30.92311        -1.61952
C         32.70313        33.07361        -2.12032
C         31.42249        33.81076        -2.02563
C         32.67499        36.01927        -2.23167
C         31.46312        35.27869        -1.78719
C         32.63562        37.52129        -2.25635
C         31.31965        38.22376        -1.88918
C         32.84545        40.33432        -1.31231
C         31.50543        39.69090        -1.45864
C         32.93081        41.65751        -0.77526
C         31.76372        42.35730        -0.30012
C         33.07661        44.41989        -0.02945
C         31.82316        43.73480         0.03241
C         33.09931        45.84375         0.16841
C         31.88351        46.56399         0.34644
C         33.15093        48.64298         0.61155
C         31.92105        47.97785         0.51151
C         33.22705        50.06793         1.11323
C         31.90789        50.81401         1.06726
C         33.08313        52.96976         0.63355
C         32.02351        52.26175         1.49194
C         32.98921        54.34324         0.34379
C         35.16433        18.56417        -2.21269
C         33.81969        17.95071        -2.14261
C         35.27498        20.03063        -2.56412
C         33.98455        20.81770        -2.62105
C         35.45308        22.92328        -2.73189
C         34.05262        22.32239        -2.66725
C         35.58081        24.22523        -3.16491
C         33.71123        25.33642        -2.73492
C         35.26003        27.30104        -2.86487
C         33.98343        26.64649        -2.42790
C         35.24091        28.81112        -2.62472
C         34.00638        29.52537        -2.16983
C         35.21591        31.64267        -2.24471
C         33.99535        30.96862        -2.20342
C         35.25897        33.08951        -2.46172
C         33.91670        33.84382        -2.44375
C         35.18706        35.97188        -2.25364
C         33.97543        35.30429        -2.23928
C         35.22035        37.46864        -2.30805
C         33.94468        38.27927        -2.24458
C         35.30105        40.25587        -1.45038
C         34.02029        39.64826        -1.66157
C         35.37821        41.57356        -0.97262
C         34.19928        42.30708        -0.66772
C         35.54368        44.38573        -0.26664
C         34.26569        43.69412        -0.28029
C         35.55800        45.82602        -0.06952
C         34.32892        46.54894         0.15860
C         35.65293        48.70302         0.55843
C         34.34869        47.94467         0.39442
C         35.51260        50.16688         0.16857
C         34.35229        50.83656         0.43759
C         35.37399        52.99999        -0.26313
C         34.25551        52.27759         0.26614
C         35.26037        54.38979        -0.54152
C         34.03237        55.02967        -0.26568
C         37.20846        15.95703        -0.31035
C         36.09485        16.66605        -0.88975
C         37.59967        18.52000        -1.51029
C         36.24858        17.89942        -1.44759
C         37.76404        19.89549        -2.11426
C         36.56824        20.75596        -2.34691
C         37.98799        22.81263        -2.75912
C         36.65492        22.12929        -2.50038
C         38.01430        24.36094        -3.02430
C         36.71398        25.12553        -2.98955
C         37.80590        27.36425        -2.76061
C         36.57588        26.51042        -2.87012
C         37.76200        28.83673        -2.47113
C         36.48061        29.55519        -2.34783
C         37.69743        31.67335        -1.89596
C         36.46342        30.91989        -2.13414
C         37.69093        33.09562        -1.87161
C         36.47486        33.85160        -2.13487
C         37.67150        36.01613        -1.69508
C         36.43480        35.23664        -2.10784
C         37.70739        37.37955        -2.40598
C         36.49080        38.17249        -2.02560
C         37.81973        40.22157        -1.71121
C         36.53847        39.51086        -1.71973
C         37.88808        41.56331        -1.35941
C         36.71679        42.16526        -0.60256
C         38.00589        44.34562        -0.64182
C         36.71295        43.67158        -0.53156
C         37.97476        45.87300        -0.58824
C         36.72535        46.57295        -0.26556
C         37.78910        48.70132        -0.85522
C         36.76706        48.00508        -0.19162
C         37.97251        50.17262        -0.66085
C         36.74343        50.92306        -0.13420
C         37.78921        53.07975        -0.80046
C         36.64051        52.35647        -0.43767
C         37.70076        54.49208        -1.06029
C         36.41628        55.11540        -1.03694
C         37.39374        57.12799        -1.96775
C         36.28463        56.43967        -1.50648
C         39.65315        15.38368         2.70273
C         39.94453        16.21901         1.62190
C         38.41572        16.56001        -0.15594
C         39.83026        18.80846        -0.11439
C         38.61456        17.99636        -0.50414
C         39.99992        20.15015        -0.80555
C         39.14742        20.53329        -2.02336
C         40.51279        22.41102        -2.53881
C         39.19484        22.03451        -2.31503
C         40.59727        24.64974        -2.74232
C         39.25564        25.22378        -2.91545
C         40.25618        27.32302        -1.82163
C         39.15368        26.69300        -2.61479
C         40.06294        28.68744        -1.24421
C         38.86621        29.46960        -1.67410
C         40.11840        31.63049        -1.45747
C         38.89514        30.95666        -1.65438
C         40.11242        33.04749        -1.53679
C         38.92264        33.78948        -1.69188
C         40.15371        35.91618        -1.96891
C         38.96459        35.24096        -1.82837
C         40.21403        37.34275        -2.39020
C         38.99306        38.13847        -2.21640
C         40.31481        40.23172        -2.10583
C         39.04186        39.50826        -2.05026
C         40.32050        41.64822        -2.00340
C         39.10112        42.30487        -1.57213
C         40.18667        44.48837        -1.88493
C         39.13198        43.68953        -1.34841
C         39.89792        45.82458        -2.14735
C         38.87273        46.57388        -1.50541
C         40.48382        49.12385        -2.06066
C         38.64800        47.93666        -1.70579
C         40.35701        50.40792        -1.50818
C         39.08552        51.00475        -1.20227
C         40.25207        53.19224        -1.18358
C         39.04343        52.40180        -1.05202
C         40.19755        54.60693        -1.23361
C         38.87940        55.24322        -1.38463
C         40.55311        57.74597        -1.30686
C         38.67041        56.55047        -1.87765
C         40.58392        59.13378        -0.98137
C         41.22757        16.61203         4.06225
C         40.25093        15.63678         3.94852
C         41.60479        17.40530         2.94062
C         40.83408        17.30698         1.72967
C         42.26333        18.89360         0.57840
C         41.02467        18.29846         0.66851
C         42.52653        19.97859        -0.40174
C         41.35284        20.77286        -0.86129
C         42.91063        22.41677        -1.86468
C         41.63673        21.82425        -1.86789
C         42.93404        24.66253        -1.98479
C         41.64756        25.31093        -2.14173
C         42.54763        27.26442        -0.85959
C         41.42221        26.63412        -1.58977
C         42.56708        28.72230        -0.82530
C         41.25643        29.45401        -0.62428
C         42.54607        31.56573        -1.00169
C         41.34420        30.90884        -1.09333
C         42.63545        32.97122        -1.47185
C         41.37975        33.76994        -1.36416
C         42.72462        35.93571        -1.80661
C         41.41848        35.25098        -1.61636
C         42.75011        37.32383        -2.03776
C         41.53960        38.07014        -2.41176
C         42.75975        40.27935        -2.29842
C         41.54545        39.55288        -2.28505
C         42.74926        41.70221        -2.30070
C         41.52773        42.39154        -2.19610
C         42.76490        44.69854        -2.42462
C         41.40760        43.87571        -2.56779
C         42.83593        46.14045        -1.99331
C         41.75313        46.99976        -2.29142
C         42.74559        48.94334        -1.14141
C         41.64301        48.33955        -1.88962
C         42.78240        50.41410        -1.11311
C         41.57067        51.12678        -1.23976
C         42.74669        53.28334        -1.01700
C         41.52697        52.54909        -1.12080
C         42.69437        54.71128        -0.95587
C         41.41568        55.33852        -1.05029
C         43.06915        57.76647        -0.18175
C         41.31728        56.76024        -0.72052
C         42.96304        59.14267        -0.33834
C         41.70186        59.78008        -0.47934
C         43.68633        18.28449         4.05551
C         42.80518        18.17488         2.93478
C         44.65792        19.24630         1.52399
C         43.29254        18.62443         1.61607
C         44.99769        20.03762         0.28562
C         43.89092        20.60710        -0.54123
C         45.07814        22.87812        -0.68094
C         43.98502        22.01457        -1.02166
C         45.08295        24.28693        -0.81503
C         43.95365        25.11531        -1.16961
C         45.09172        27.30343        -0.48186
C         43.83371        26.51121        -0.61968
C         45.10806        28.67781        -0.50373
C         43.80399        29.39554        -0.45477
C         45.10426        31.63345        -0.56147
C         43.78444        30.90893        -0.51082
C         45.15924        33.07804        -0.95934
C         43.92248        33.72582        -1.51111
C         45.18827        35.89228        -1.45925
C         43.90367        35.19918        -1.61303
C         45.23893        37.38193        -1.61653
C         44.02048        38.03880        -2.15524
C         45.31796        40.23543        -2.00135
C         44.05233        39.54537        -2.35926
C         45.34046        41.70238        -2.17653
C         44.04874        42.43856        -2.44052
C         45.32599        44.62704        -1.88235
C         44.07184        43.94905        -2.34531
C         45.31363        46.04827        -1.63920
C         44.05312        46.73353        -1.58283
C         45.27364        48.89803        -0.97688
C         44.03295        48.11816        -1.05729
C         45.23300        50.32534        -0.89195
C         44.00858        51.09477        -0.96303
C         45.22942        53.21110        -1.07850
C         43.99226        52.53882        -0.97514
C         45.34516        54.69319        -1.13462
C         43.98674        55.50112        -1.00601
C         45.41771        57.51123        -0.70795
C         44.16358        56.92100        -0.61081
C         44.85545        18.98825         4.01902
C         46.70483        20.20398         2.72877
C         45.23611        19.83027         2.83414
C         47.08147        20.98489         1.50916
C         46.28087        20.76164         0.24798
C         47.63639        22.82525        -0.45842
C         46.29734        22.24556        -0.05003
C         47.62228        24.31864        -0.56905
C         46.30224        25.01407        -0.36055
C         47.62605        27.22530        -0.39878
C         46.31657        26.51227        -0.23057
C         47.64599        28.70804        -0.57579
C         46.35438        29.46082        -0.53051
C         47.63080        31.62601        -0.60884
C         46.35681        30.83321        -0.61923
C         47.63937        33.00564        -1.17671
C         46.46431        33.69120        -1.31961
C         47.75545        35.90522        -1.71585
C         46.43965        35.11116        -1.70667
C         47.70132        37.39034        -1.62716
C         46.53416        38.09093        -1.75088
C         47.73501        40.27065        -1.48697
C         46.50085        39.55093        -1.79664
C         47.69633        41.72035        -1.33733
C         46.53132        42.44860        -1.71208
C         47.79209        44.56863        -1.46380
C         46.50355        43.86909        -1.67835
C         47.81345        46.09164        -1.37246
C         46.50953        46.79837        -1.37723
C         47.75960        48.95807        -0.98302
C         46.49312        48.19966        -1.13605
C         47.73642        50.40118        -0.66750
C         46.46455        51.04680        -0.90433
C         48.10252        53.38435        -0.58147
C         46.37580        52.41311        -1.23037
C         47.76157        54.67722        -0.14306
C         46.59471        55.37393        -0.71007
C         46.60848        56.75714        -0.69775
C         48.98238        20.56875         3.57869
C         47.64638        20.01878         3.69002
C         49.45945        21.13930         2.43340
C         48.58854        21.03873         1.18648
C         50.14544        22.89974         0.22906
C         48.85367        22.15023         0.15776
C         50.15731        24.30159        -0.31227
C         48.86884        25.03912        -0.14476
C         50.18015        27.29509         0.21474
C         48.87558        26.51622         0.04794
C         50.14508        28.71245        -0.32551
C         48.95329        29.39879        -0.41203
C         50.20065        31.55249        -0.69583
C         48.94470        30.87406        -0.45889
C         50.22109        32.94432        -1.10286
C         48.93716        33.71111        -1.39528
C         50.06532        35.98185        -0.72918
C         48.95722        35.17764        -1.36173
C         50.24857        37.35213        -1.39934
C         48.98577        38.11805        -1.64264
C         50.06482        40.17487        -0.63977
C         48.92626        39.57007        -1.35146
C         50.00860        41.67063        -0.35643
C         48.85054        42.41043        -0.87311
C         50.03710        44.49539        -0.32979
C         48.92447        43.82069        -0.88372
C         49.97892        45.91775        -0.13369
C         48.94118        46.68968        -0.62360
C         49.96202        48.84190         0.29749
C         49.00955        48.16140        -0.58220
C         49.90798        50.21010         0.49439
C         48.87418        51.03613        -0.11365
C         49.79066        53.10492         1.06792
C         48.93294        52.48533         0.12046
C         49.61125        54.45604         1.40585
C         48.55786        55.21419         0.88476
C         51.79380        21.43137         3.30920
C         50.80798        21.72045         2.34471
C         52.39129        23.28874         1.27347
C         51.14483        22.62175         1.30280
C         52.68519        24.25735         0.10654
C         51.43744        25.05514        -0.30145
C         52.62549        27.22270        -0.16671
C         51.43435        26.53438        -0.18022
C         52.61561        28.68189        -0.14117
C         51.43491        29.37644        -0.33260
C         52.67726        31.58791        -0.25959
C         51.49462        30.80513        -0.80756
C         52.73814        33.03094        -0.60473
C         51.42050        33.70751        -0.64333
C         52.65199        35.87986        -0.50709
C         51.35455        35.19443        -0.49380
C         52.69239        37.34753        -0.61795
C         51.49924        38.11513        -1.06328
C         52.52019        40.21702        -0.26472
C         51.40328        39.54319        -0.65214
C         52.45551        41.58608         0.37644
C         51.26179        42.38008        -0.08601
C         52.42554        44.43217         0.52009
C         51.24578        43.76616         0.03108
C         52.27201        45.77444         1.08281
C         50.96278        46.52135         0.79791
C         52.11138        48.64559         1.69724
C         50.89509        47.99298         1.07677
C         52.17352        50.11622         1.68201
C         50.89538        50.82072         1.43410
C         52.15564        52.94954         2.01130
C         50.86525        52.30599         1.70992
C         53.05966        22.00227         3.22688
C         54.74545        23.53697         2.17190
C         53.37969        22.93165         2.22297
C         54.98034        24.59223         1.11053
C         53.86751        25.17493         0.32641
C         55.15472        27.28869        -0.08006
C         53.90418        26.50164        -0.05425
C         55.16323        28.69093        -0.02344
C         53.88078        29.37346         0.34985
C         55.22569        31.58042        -0.08413
C         53.92652        30.88553         0.15946
C         55.21754        33.09713        -0.05626
C         53.88022        33.74135        -0.37289
C         55.09566        35.92609        -0.34460
C         53.84318        35.19148        -0.41542
C         55.07783        37.31118        -0.04983
C         53.77281        38.03966         0.19896
C         55.06105        40.25775         0.11788
C         53.82735        39.51269        -0.23005
C         55.01096        41.71098         0.45551
C         53.75864        42.36966         0.38164
C         54.84812        44.47317         1.10337
C         53.67834        43.76218         0.64415
C         54.73604        45.82597         1.56306
C         53.45866        46.51489         1.53827
C         54.50007        48.59110         2.34346
C         53.36762        47.87983         1.86969
C         54.48402        50.00116         2.50861
C         53.29487        50.77577         2.13997
C         53.28074        52.22533         2.22496
C         57.20581        23.42016         2.45174
C         55.96883        22.87282         2.66510
C         57.43828        24.45755         1.46331
C         56.35027        24.76167         0.67773
C         57.61195        27.30211         0.29620
C         56.42781        26.67201        -0.14325
C         57.59358        28.72561         0.24244
C         56.38990        29.41304        -0.03682
C         57.67340        31.53703        -0.67684
C         56.39173        30.87600        -0.21862
C         57.64285        33.02770        -1.05155
C         56.26743        33.78315        -1.01715
C         57.50245        35.99840        -0.56451
C         56.32573        35.25224        -0.55488
C         57.48113        37.39193        -0.25005
C         56.25652        38.02679         0.09536
C         57.45691        40.22073         0.51495
C         56.19646        39.41382         0.70806
C         57.44931        41.59461         1.19356
C         56.17357        42.39261         0.86352
C         57.23950        44.49185         1.72987
C         56.10072        43.78329         1.22975
C         57.12564        45.82973         2.15700
C         55.86346        46.47949         2.11106
C         56.89822        48.54958         3.13473
C         55.64435        47.76693         2.87744
C         56.82414        49.92787         3.26012
C         55.63784        50.63743         3.00375
C         59.89667        24.51274         1.62695
C         58.71039        25.15489         1.22166
C         60.02265        27.18372         0.81868
C         58.77343        26.51299         0.74337
C         60.12002        28.64779         0.54038
C         58.86164        29.48850         0.35998
C         60.16040        31.10488        -0.92757
C         58.94079        30.78006        -0.38196
C         60.12719        33.43065        -1.40964
C         58.87546        33.90431        -1.08627
C         60.03437        36.24724        -1.00300
C         58.76400        35.38287        -1.02695
C         60.01399        37.74610        -0.67507
C         58.59639        38.23955        -0.47337
C         60.25826        40.59139         0.49836
C         58.42913        39.64433        -0.26742
C         60.12005        41.99201         0.93554
C         58.69006        42.51087         1.12491
C         59.75567        44.73702         1.76939
C         58.56388        43.77938         1.98691
C         59.57993        45.95997         2.65770
C         58.28942        46.53470         2.72009
C         59.25792        48.46016         3.89282
C         58.14724        47.83596         3.27930
C         61.12318        25.16516         1.60354
C         61.17913        26.50845         1.22914
C         61.35305        29.13966        -0.08650
C         61.35534        30.31072        -0.76438
C         61.33590        34.20738        -1.26942
C         61.31131        35.52946        -0.95500
C         60.56970        38.13750         0.67342
C         60.71982        39.44506         1.16246
C         61.21608        42.72644         1.59950
C         61.06004        44.00105         1.98402
C         60.66781        46.61731         3.24469
C         60.49770        47.83931         3.90495
O         41.36108        34.69561        -0.23154
O         29.74902        24.99301         1.74539
O         39.46354        15.81129         0.36475
O         49.78761        33.13593        -2.51508
O         39.70995        57.35402        -2.37190
O         43.15864        23.49624        -2.73458
O         44.21301        38.62796        -3.49062
O         34.45632        24.77495        -3.77066
O         43.64018        30.23747         0.76989
O         59.29491        36.03010        -2.24893
O         23.27993        45.94590         0.75698
O         39.48966        26.23684        -3.97446
O         54.76448        24.96522         2.53541
O         44.54655        17.83186         1.29779
O         38.88968        28.79793        -0.34765
O         28.55020        35.16573         1.49014
O         43.13078        48.27286         0.10027
O         53.01453        31.47705         1.16905
O         60.34619        32.12862        -1.85765
O         54.76711        39.91505        -1.27576
O         45.14401        36.79349        -0.27468
O         48.25062        31.53235         0.72058
O         37.92938        18.67295        -2.92031
O         34.63274        38.09284        -3.51640
O         38.61173        18.84291         0.71116
O         59.56114        29.45716         1.64495
O         42.87263        26.63426         0.47314
O         32.99996        26.87027        -0.15023
O         40.35447        21.19622         0.14377
O         27.61734        27.86117        -0.98758
O         59.37049        42.74348        -0.10297
O         57.61064        31.99313        -2.06930
O         47.72714        27.77311        -1.74736
O         31.73515        23.71825         0.56588
O         25.62881        35.20846         3.97575
O         48.83175        48.67917        -1.94250
O         52.60395        37.84493        -1.99441
O         27.23870        32.16134        -1.57958
O         45.10403        32.70953         0.45294
O         56.52974        25.34121        -0.58507
O         48.69860        25.61619         1.19125
O         47.09009        35.41377        -2.95988
O         37.98791        28.38353        -3.83200
O         44.67640        55.26928        -2.28382
O         40.71556        46.48295        -3.07284
O         29.05937        46.22220         2.33362
O         24.80507        48.58658         0.15816
O         50.84892        24.54610        -1.56793
O         24.63316        31.04463        -0.17805
O         43.57940        44.51648        -3.62605
O         33.59831        49.95362         2.50074
O         23.05710        32.69541         1.14712
O         49.93791        21.83270        -0.76132
O         39.35865        48.59585        -2.71757
O         30.45503        40.46143        -2.15096
O         49.68046        40.67147         0.69816
O         34.57766        33.46445        -3.69505
O         53.53043        38.02660         1.58126
O         28.45258        34.80184        -2.09391
O         51.15978        34.32399         0.68578
O         33.72584        21.55693        -3.86962
O         47.74364        23.47151        -1.74536
O         38.51897        45.09663         0.52564
O         47.52627        52.98094        -1.79153
O         42.00297        57.10734         0.46851
O         38.05441        23.38155        -4.10661
O         59.53663        40.41696        -0.66485
O         26.10643        38.76548         3.51853
O         50.94688        48.23603         2.51374
O         28.54328        50.74493        -0.33899
O         44.88641        42.01920        -3.55934
O         51.11710        45.76930         2.02185
O         46.19080        25.65734         0.95088
O         49.82737        37.58087        -2.75954
O         46.48820        22.39317         1.49443
O         40.92115        37.56204        -3.66240
O         37.83386        50.53761         0.76018
O         32.47062        36.76719        -3.49677
O         46.14972        19.58706        -0.54161
O         30.48593        33.35335        -3.08177
O         35.12644        28.23444        -3.98372
O         48.18185        45.41014        -2.60814
O         25.72206        41.87126        -0.13674
O         35.45233        18.99740        -3.59226
O         29.83864        48.36916        -0.68443
O         50.33855        51.35974         2.69349
O         43.38922        19.64825        -1.53529
O         43.37774        33.07932        -2.73902
O         55.72227        33.78652        -2.28288
O         40.80783        23.46658        -3.41098
O         57.35542        41.29557         2.62032
H         56.66427        40.58627         2.74337
O         36.93585        41.74724         0.80028
H         37.65918        42.29991         1.16769
O         53.07352        23.41185        -1.00359
H         52.33617        23.43888        -1.66244
O         59.70079        45.23614         0.41269
H         60.56919        45.62747         0.18792
O         49.56993        36.35578         0.59574
H         49.81261        35.62339         1.21196
O         39.94188        19.93346        -3.09338
H         39.40978        19.92799        -3.91809
O         26.10075        37.70653        -0.59935
H         26.52146        38.17003        -1.35595
O         41.04773        29.49922         0.80947
H         40.09256        29.31695         0.97280
O         60.70147        38.41671        -1.73595
H         60.30936        38.10033        -2.57814
O         44.51340        21.09971         2.98516
H         45.09842        21.83688         2.68024
O         37.61522        37.06545        -3.82041
H         37.48470        37.89653        -4.32326
O         35.92885        48.67842         1.98232
H         35.14918        49.15005         2.41207
O         41.10696        43.86804        -3.97923
H         41.96912        43.86062        -4.45930
O         58.62394        43.43963         3.38555
H         57.98163        42.70498         3.54480
O         25.11155        41.76475         4.34669
H         25.76523        41.03251         4.30724
O         55.19628        47.33168         4.22475
H         54.32536        46.89103         4.11481
O         51.74827        30.70083        -2.25775
H         51.30613        31.44832        -2.71950
O         28.00605        29.59668         2.19657
H         27.47219        30.13897         2.81640
O         52.20005        41.31249         1.80163
H         51.31676        40.87198         1.85275
O         55.59476        33.48104         1.28756
H         54.89401        33.16210         1.89710
O         32.50976        52.29782         2.85414
H         33.06107        51.46569         2.98901
O         55.86999        39.21785         2.11239
H         54.96549        38.74799         2.13537
O         29.94169        39.47529         1.39294
H         29.34824        38.95504         1.97672
O         48.90871        19.77926         0.56536
H         49.62182        19.94819        -0.09219
O         50.32013        27.53978         1.65050
H         49.94723        26.75700         2.11855
O         30.59186        25.26386        -2.53080
H         31.02815        25.50719        -3.37483
O         37.53244        36.30679        -0.27338
H         37.76600        35.50151         0.23473
O         25.94943        32.73899         3.29711
H         26.12881        33.39366         4.01666
O         53.80206        29.13658         1.79188
H         53.17363        29.80534         2.15269
O         30.51675        38.26840        -3.09135
H         30.81397        37.52168        -3.66704
H         24.05482        23.30866         2.82920
H         22.02365        24.51113         3.53959
H         21.83182        26.94775         3.26782
H         21.69568        28.80468         3.03306
H         21.50823        31.20720         2.86562
H         22.04380        33.05485         3.79410
H         22.51304        35.28123         4.64769
H         22.39070        37.30939         4.42509
H         22.28934        39.75050         4.39578
H         22.17031        41.77617         4.38211
H         21.78744        44.09019         3.74257
H         21.80353        46.06473         3.79594
H         23.03220        49.71935         1.88751
H         21.49745        48.45716         3.34802
H         25.58013        22.38168         2.14258
H         24.90460        50.69963         2.15955
H         27.47957        21.20203         1.26474
H         26.98998        51.93181         1.82073
H         30.44060        19.16697        -1.12499
H         28.76272        20.29997         0.15166
H         30.69175        54.02060         1.84245
H         28.59994        52.97326         1.23724
H         31.72672        18.21515        -2.04496
H         32.07726        54.89759         0.60415
H         33.73476        16.85564        -2.16056
H         33.90704        56.10175        -0.46767
H         37.07579        14.91356         0.00064
H         35.12432        16.15395        -0.91512
H         37.29626        58.13991        -2.38103
H         35.29935        56.92119        -1.54846
H         38.96274        14.54115         2.57059
H         39.73849        59.74610        -1.32664
H         41.75938        16.72933         5.01519
H         39.99356        15.01305         4.81511
H         43.85935        59.74502        -0.54523
H         41.67482        60.87881        -0.42270
H         43.41241        17.77939         4.99301
H         45.50614        58.59337        -0.53909
H         45.47017        19.04347         4.92856
H         47.55290        57.28706        -0.51035
H         49.60619        20.53410         4.48349
H         47.40521        19.47662         4.61550
H         50.26076        54.90494         2.16971
H         48.36710        56.22445         1.27168
H         51.58023        20.72270         4.12049
H         52.21156        54.04767         1.99370
H         53.81970        21.73143         3.97275
H         54.21661        52.75911         2.43771
H         58.07500        22.97842         2.96110
H         55.87307        21.97694         3.29528
H         57.72127        50.50742         3.51855
H         55.65150        51.72576         3.14346
H         59.84937        23.47014         1.97038
H         59.13931        49.43528         4.38325
H         62.03554        24.64164         1.91985
H         62.13689        27.04242         1.29003
H         62.24769        28.50133        -0.09637
H         62.26218        30.65548        -1.28004
H         62.29135        33.66855        -1.33730
H         62.23128        36.07907        -0.71097
H         60.75272        37.32297         1.39378
H         61.15608        39.56688         2.16514
H         62.16842        42.19824         1.75528
H         61.91361        44.51543         2.44710
H         61.67570        46.18368         3.20972
H         61.35392        48.32101         4.39612
