         404
 CSIRO Nanostructure Databank - Neutral Graphene Oxide Data Set
C          2.18756         4.99874        -5.12832
C          1.05797         5.80044        -5.35808
C          2.12555         7.75439        -4.31045
C          1.00291         7.11627        -4.91085
C          2.07602         9.06061        -3.82847
C          0.93485         9.93115        -4.02752
C          1.76591        11.52632        -2.31124
C          0.80611        11.12785        -3.40265
C          1.49455        12.93034        -1.73235
C          0.25340        13.24914        -1.14699
C          1.22685        15.12960         0.10173
C          0.10831        14.39785        -0.36189
C          1.10056        16.33714         0.91965
C         -0.08381        17.05885         0.99136
C          1.01764        19.15541         1.65882
C         -0.12779        18.42639         1.36177
C          1.06750        20.60265         1.74113
C         -0.12687        21.36715         1.72698
C          1.13102        23.44743         1.85621
C         -0.09795        22.74324         1.81718
C          1.17081        24.89152         1.91408
C          0.00222        25.66865         2.12205
C          1.28688        27.73866         2.03522
C          0.06401        27.04531         2.21553
C          1.38213        29.17753         2.17600
C          0.35339        29.90855         2.80666
C          1.68721        31.90859         2.63094
C          0.54108        31.25205         3.09915
C          1.63208        34.12721         2.07583
C          0.49003        34.92401         2.23050
C          1.19576        36.24486         0.33315
C          0.25056        35.96071         1.33837
C          1.07295        37.49454        -0.39997
C          4.35403         4.69086        -4.04160
C          3.32063         5.52188        -4.47762
C          4.40987         7.44560        -3.24959
C          3.46167         7.02627        -4.35258
C          4.39939         8.79292        -2.81089
C          3.29949         9.68555        -3.25585
C          4.36571        11.50049        -1.84597
C          3.20595        11.07635        -2.68628
C          4.50060        12.83235        -1.50837
C          2.53396        13.82291        -1.42780
C          3.75996        15.09444         0.38830
C          2.51188        14.73650        -0.36274
C          3.63055        16.24074         1.37359
C          2.29681        16.91446         1.54128
C          3.53211        19.14668         1.98360
C          2.25961        18.42087         1.90846
C          3.56069        20.53481         1.94629
C          2.31513        21.27717         1.83489
C          3.60295        23.39857         1.75088
C          2.34655        22.70501         1.82949
C          3.62690        24.80904         1.63807
C          2.41273        25.56274         1.75768
C          3.68648        27.67058         1.45996
C          2.45747        26.99059         1.75002
C          3.70972        29.08642         1.35638
C          2.56585        29.85269         1.74715
C          3.75517        31.99332         1.16686
C          2.66199        31.28119         1.82960
C          3.69426        33.37293         0.78015
C          2.54558        34.27367         1.00985
C          3.36807        35.79587        -0.79002
C          2.32825        35.40628         0.17154
C          3.27125        37.19122        -1.45453
C          2.06620        37.98831        -1.17309
C          6.44173         4.31790        -2.78687
C          5.39845         5.17628        -3.20983
C          6.23931         6.92042        -1.60442
C          5.35879         6.53945        -2.76287
C          6.43533         8.39958        -1.44626
C          5.40737         9.25796        -1.90491
C          6.48579        11.12831        -0.67541
C          5.41450        10.62334        -1.46187
C          6.46035        12.46364        -0.16419
C          5.37749        13.32053        -0.51318
C          6.19644        15.05152         0.96569
C          5.14280        14.55526         0.16859
C          6.08936        16.34729         1.61785
C          4.85698        16.96297         1.77066
C          6.05523        19.12231         2.41013
C          4.75272        18.35710         2.25194
C          6.05936        20.57495         2.12796
C          4.82418        21.25853         1.98332
C          6.07638        23.34895         1.59604
C          4.83627        22.66545         1.77678
C          6.08170        24.75590         1.34302
C          4.86600        25.49344         1.41739
C          6.09233        27.57389         0.91335
C          4.88069        26.91044         1.26669
C          6.08672        29.00470         0.73482
C          4.90826        29.76817         0.97170
C          6.04853        31.81055         0.21149
C          4.89302        31.19618         0.78502
C          6.01203        33.21040        -0.13260
C          4.79267        33.93765         0.05063
C          5.83260        35.86837        -1.10718
C          4.70230        35.21436        -0.59050
C          5.74476        37.18862        -1.70357
C          4.52107        37.85210        -1.79336
C          8.64379         3.95503        -1.75793
C          7.50889         4.76103        -1.97969
C          8.57172         6.62961        -0.76052
C          7.51104         6.12874        -1.48467
C          8.61843         8.01256        -0.34418
C          7.53397         8.88883        -0.69751
C          8.63327        10.78449         0.47110
C          7.58069        10.27692        -0.32173
C          8.66038        12.13877         0.91917
C          7.51031        12.97229         0.64514
C          8.57247        14.92635         1.69138
C          7.42229        14.31634         1.09047
C          8.57526        16.27974         2.00694
C          7.32782        17.02890         1.98258
C          8.54238        19.15148         2.64225
C          7.31225        18.37292         2.27508
C          8.58003        20.46127         1.84149
C          7.28401        21.24198         1.92758
C          8.55577        23.31245         1.37616
C          7.30728        22.62500         1.63393
C          8.52610        24.65076         0.97101
C          7.29919        25.41395         0.98235
C          8.45198        27.48642         0.14486
C          7.26596        26.80430         0.68837
C          8.49487        28.94437         0.10329
C          7.27869        29.67414         0.32016
C          8.39966        31.64125        -0.65246
C          7.22118        31.04643        -0.00397
C          8.36300        33.11478        -0.97060
C          7.14586        33.87203        -0.65073
C          8.32313        35.95125        -1.33505
C          7.12074        35.25084        -1.00136
C          8.21748        37.23704        -1.99620
C          6.94193        37.80091        -2.16895
C         10.93939         3.71042        -1.00422
C          9.74223         4.41960        -1.00559
C         10.85625         6.29399         0.34650
C          9.55143         5.65613        -0.14463
C         10.93363         7.75697         0.54534
C          9.75672         8.52146         0.32799
C         11.02246        10.51153         1.40931
C          9.70364         9.87874         0.88449
C         11.05029        11.97538         1.58515
C          9.81113        12.68479         1.54082
C         11.02515        14.76151         2.44015
C          9.74896        14.08575         2.01208
C         11.08258        16.24036         2.32487
C          9.81967        16.98262         2.28322
C         11.07464        19.09313         2.56196
C          9.80851        18.35448         2.44178
C         11.06510        20.63698         2.45519
C          9.79021        21.30112         2.16148
C         11.04464        23.35151         1.68067
C          9.82317        22.63608         1.69556
C         11.09559        24.62553         0.96901
C          9.79415        25.28174         0.55050
C         11.00831        27.52953         0.25436
C          9.80395        26.72815         0.14763
C         10.97341        28.89520        -0.09047
C          9.71092        29.59523        -0.19313
C         10.89518        31.73154        -0.63500
C          9.71406        30.99916        -0.47579
C         10.86475        33.16446        -0.90006
C          9.63129        33.84422        -1.03339
C         10.82721        35.93177        -1.10797
C          9.58480        35.25850        -1.13678
C         10.65032        37.66898        -2.29474
C          9.32351        37.85395        -2.69227
C         13.35852         3.62523        -0.76614
C         12.15415         4.23927        -0.48738
C         13.42624         6.26487         0.41601
C         12.15464         5.52887         0.24353
C         13.40472         7.59523         0.82947
C         12.17638         8.36314         0.90588
C         13.50548        10.44282         1.41366
C         12.26456         9.75446         1.23200
C         13.51290        11.85782         1.70422
C         12.28958        12.59910         1.82140
C         13.55621        14.76933         2.18613
C         12.32614        13.95887         2.51462
C         13.55867        16.14031         2.24000
C         12.30174        16.88185         2.27722
C         13.58790        19.13578         2.08049
C         12.31688        18.36401         2.14540
C         13.58876        20.60663         2.37437
C         12.33083        21.34039         2.19492
C         13.58580        23.52870         1.97434
C         12.27771        22.83402         2.40132
C         13.50894        24.86400         1.32449
C         12.32421        25.45422         1.02030
C         13.49453        27.56265         0.32342
C         12.23623        26.96981         0.92701
C         13.46936        28.96671        -0.19797
C         12.17553        29.66154        -0.23594
C         13.39574        31.76182        -0.56473
C         12.16070        31.04412        -0.49427
C         13.33948        33.22568        -0.66237
C         12.08155        33.89701        -0.98693
C         13.27449        36.03748        -1.68476
C         12.08312        35.29787        -1.23620
C         13.10347        37.14707        -2.64849
C         11.83282        37.68033        -3.05009
C         15.79094         3.61420        -0.85647
C         14.61062         4.24937        -0.46730
C         15.90432         6.15374         0.39135
C         14.65741         5.55588         0.14386
C         15.95413         7.42097         1.15000
C         14.66239         8.23182         1.29014
C         15.97370        10.38295         1.57596
C         14.74340         9.71317         1.42131
C         15.98119        11.80377         1.77851
C         14.77474        12.51817         1.87932
C         16.10557        14.73435         2.06459
C         14.80983        13.97339         2.22320
C         16.09092        16.20687         1.92201
C         14.84735        16.90185         2.31044
C         16.11877        19.11131         1.83508
C         14.88313        18.40835         2.26709
C         16.12083        20.53313         1.75672
C         14.92499        21.30668         2.20543
C         16.09061        23.38162         1.27176
C         14.90736        22.79051         1.94262
C         15.96794        24.75869         0.67708
C         14.81102        25.58485         1.20908
C         16.01790        27.63628         0.21774
C         14.80015        27.00647         0.76819
C         15.97903        29.01641        -0.12080
C         14.72567        29.73289        -0.20653
C         15.90712        31.91810        -0.44442
C         14.65229        31.12334        -0.38383
C         15.87814        33.26624        -1.05488
C         14.62409        34.02388        -0.91215
C         15.78011        35.91637        -1.86994
C         14.51788        35.37044        -1.51564
C         15.52088        37.47355        -3.27242
C         14.14492        37.56807        -3.53211
C         18.22227         3.65999        -1.24811
C         17.03797         4.25939        -0.72818
C         18.36313         6.19430        -0.00446
C         17.10278         5.54095        -0.09596
C         18.50109         7.45425         0.74757
C         17.27195         8.13374         1.30112
C         18.53390        10.36472         1.20956
C         17.27681         9.63258         1.54218
C         18.59572        11.79055         1.56280
C         17.28497        12.52697         1.91397
C         18.48016        14.67134         1.40457
C         17.32189        13.98495         1.71374
C         18.40995        16.12850         1.11761
C         17.21819        16.90225         1.55157
C         18.47697        19.05624         1.16553
C         17.26456        18.36039         1.50764
C         18.48121        20.48580         1.09471
C         17.28152        21.22140         1.35335
C         18.47867        23.35620         0.71811
C         17.26052        22.66697         1.12535
C         18.47266        24.78054         0.49027
C         17.26264        25.51573         0.54392
C         18.45407        27.58046        -0.13634
C         17.23810        26.90608         0.22657
C         18.42357        28.97303        -0.47240
C         17.19661        29.68415        -0.41119
C         18.37068        31.78036        -1.19433
C         17.21450        31.14952        -0.53243
C         18.26802        33.09636        -1.70783
C         17.00619        33.81855        -1.64681
C         18.03352        35.74021        -2.91608
C         16.94939        35.17905        -2.14960
C         17.86746        36.86763        -3.81277
C         16.60982        37.46954        -4.14741
C         19.40934         4.35038        -1.24030
C         20.66697         6.44956        -0.87335
C         19.49030         5.64300        -0.64717
C         20.73878         7.74037        -0.46472
C         19.74960         8.28618         0.47969
C         20.86383        10.52137         0.48072
C         19.67445         9.75030         0.72391
C         20.89575        11.87753         0.64577
C         19.75581        12.58684         1.12905
C         20.94189        14.76340         1.02843
C         19.72715        13.98772         1.17500
C         20.94460        16.11268         0.93345
C         19.68539        16.86821         0.81482
C         20.85912        19.05463         0.63897
C         19.68923        18.34901         0.90753
C         20.86270        20.45036         0.57715
C         19.68944        21.18390         0.77415
C         20.88739        23.34134         0.35597
C         19.68541        22.63680         0.62366
C         20.89241        24.70680         0.14429
C         19.69702        25.45881         0.17785
C         20.86631        27.58204        -0.46969
C         19.68515        26.87160        -0.13659
C         20.83456        28.92516        -0.81781
C         19.62865        29.65440        -0.84496
C         20.70311        31.69983        -1.83660
C         19.57551        31.04184        -1.29218
C         20.61840        33.00041        -2.30646
C         19.40201        33.72206        -2.29338
C         20.35605        35.53618        -3.68977
C         19.27797        35.02375        -2.95019
C         20.21458        36.68039        -4.48402
C         18.97888        37.29214        -4.59058
O          3.52284        14.86434         1.84486
O          9.02466        26.89852        -1.07291
O         18.80087        16.40742        -0.28083
O         15.86997        37.30727        -1.91349
O         11.18001        19.89517         3.74224
O         14.43688        20.95768         3.53640
O         10.55907        24.49404        -0.41915
O          3.60742        10.91320        -4.06568
O          3.70617        13.75931        -2.18017
O          2.98654        35.94255        -2.18780
O         15.62036        14.29810         3.39716
O         14.97720        26.64017         2.20100
O          2.11632        17.36062         2.91187
O         11.36842         5.52848         1.49425
O         14.52283        23.59680         3.11125
O         15.21830         7.44321         2.40104
O          1.89215        33.21236         3.10164
O         10.08789        14.27002         3.45389
O          5.29632        18.66387         3.58334
O         12.87801        18.81159         0.84197
O         10.81396        37.30953        -0.93212
O         19.61294         7.46231         1.68606
O         13.48351        27.75796        -1.10887
O         14.97781        17.70656         3.54239
O          8.15549        32.10982        -2.03128
O         17.45877         8.66755         2.63379
O         14.05517        33.90966         0.43165
O         16.78132        31.81142         0.72362
O         10.04007         9.89916         2.30316
O         18.17465        12.04013         2.95326
O         12.19604        27.41795         2.31956
H         13.05377        27.15582         2.73458
O          8.85186         5.18767         1.05049
H          9.55285         4.90560         1.68501
O          1.50162        10.64489        -1.16796
H          0.58572        10.80495        -0.85701
O         12.08269        23.10887         3.81430
H         12.96137        23.01090         4.24950
O         12.52391        13.61127         3.91467
H         11.62625        13.49312         4.30581
O          8.43389        19.53011         4.03353
H          8.31379        18.72087         4.57252
O          4.09790         7.45919        -5.60450
H          3.48819         7.22472        -6.33587
O          5.46231         6.50896        -0.40150
H          6.08109         6.51420         0.36156
O         15.51604        24.49567        -0.71467
H         16.25791        24.06826        -1.19409
O          8.72466        20.05156         0.44079
H          8.80202        20.86300        -0.10567
H          2.15031         3.92531        -5.36574
H          0.16855         5.35380        -5.82420
H          0.05114         7.65950        -4.99290
H          0.15770         9.62256        -4.74273
H         -0.06156        11.77052        -3.61300
H         -0.62688        12.61757        -1.34178
H         -0.89507        14.66513        -0.00376
H         -1.01011        16.61485         0.59968
H         -1.09198        18.94176         1.25302
H         -1.09843        20.85855         1.67300
H         -1.04879        23.29197         1.82421
H         -0.97098        25.17648         2.24961
H         -0.86207        27.60447         2.40523
H         -0.55329        29.40208         3.16183
H         -0.18895        31.80586         3.70304
H         -0.18386        34.73823         3.07652
H         -0.62899        36.60843         1.45856
H          0.17455        38.10032        -0.20893
H          4.31179         3.61376        -4.26664
H          1.99679        39.00119        -1.59656
H          6.45362         3.28162        -3.15705
H          4.49904        38.91625        -2.07282
H          8.71642         2.97925        -2.26274
H          6.86047        38.76578        -2.69072
H         10.99337         2.76507        -1.56691
H          9.10122        38.41098        -3.61435
H         13.36650         2.66556        -1.30391
H         11.79650        38.17620        -4.03226
H         15.74175         2.62151        -1.32717
H         13.83673        38.02216        -4.48661
H         18.15672         2.66191        -1.70401
H         16.50132        37.90416        -5.15260
H         20.30989         3.91957        -1.70074
H         21.45570         6.03292        -1.51707
H         21.57027         8.36913        -0.81028
H         21.77346        10.00962         0.14349
H         21.81462        12.42411         0.39683
H         21.90566        14.23949         1.08776
H         21.90148        16.65169         0.94354
H         21.79531        18.52023         0.43207
H         21.80771        20.95184         0.33542
H         21.84497        22.80787         0.31158
H         21.85011        25.19933        -0.06856
H         21.83780        27.07058        -0.46410
H         21.78161        29.41904        -1.07378
H         21.66844        31.18042        -1.90193
H         21.52974        33.45708        -2.71327
H         21.32674        35.02479        -3.68857
H         21.07140        37.05477        -5.06060
H         18.84701        38.14640        -5.26989
