         620
 CSIRO Nanostructure Databank - Neutral Graphene Oxide Data Set
C         23.77171        27.07209         0.88406
C         23.73748        28.44249         1.02130
C         23.67976        31.39075         1.28233
C         23.66188        32.77057         1.40019
C         23.67178        35.70972         1.57319
C         23.53828        37.10092         1.41067
C         23.14694        40.04440         1.10178
C         23.16021        41.36376         1.34247
C         23.08226        44.38072         1.10145
C         23.02419        45.77061         0.93631
C         26.09288        24.39111        -0.29316
C         24.96983        25.00206         0.21820
C         26.04391        27.19210        -0.03969
C         24.91770        26.41467         0.35844
C         25.95974        28.61037         0.05783
C         24.83476        29.25352         0.60932
C         25.95147        31.49396         0.46094
C         24.81297        30.71106         0.77445
C         25.93780        32.89927         0.54793
C         24.76881        33.56235         1.00440
C         25.71118        35.73735         0.10713
C         24.71194        35.00669         0.98346
C         25.71927        37.23553         0.30325
C         24.51121        37.85800         0.74090
C         25.57559        40.11845         0.27719
C         24.31753        39.30920         0.54763
C         25.58248        41.53960         0.64109
C         24.41881        42.19399         1.35254
C         25.46134        44.34996         0.59354
C         24.28135        43.66008         0.95601
C         25.37172        45.76504         0.22497
C         24.14845        46.50711         0.52415
C         25.35182        48.64869         0.31059
C         24.17128        47.92159         0.41314
C         28.48062        23.05904        -1.34880
C         28.44491        24.46817        -1.17260
C         27.24497        25.13876        -0.67411
C         28.39955        27.33082        -0.88796
C         27.22669        26.54145        -0.53523
C         28.36264        28.70545        -0.74760
C         27.10799        29.39367        -0.41314
C         28.48374        31.52292         0.10837
C         27.14392        30.86336        -0.14548
C         28.35812        33.02278         0.03194
C         27.14223        33.67415         0.21633
C         28.24842        35.87673        -0.06425
C         27.07843        35.10145         0.14558
C         28.17434        37.31576        -0.16415
C         26.88439        37.98565         0.00662
C         28.02905        40.18096        -0.01191
C         26.85010        39.40818         0.08185
C         27.99087        41.55560         0.23403
C         26.76802        42.25032         0.54110
C         27.92871        44.46944         0.51263
C         26.73463        43.71055         0.57396
C         27.94587        45.87851         0.42604
C         26.70571        46.59373         0.13292
C         27.85750        48.76040         0.50659
C         26.63600        48.04605         0.32433
C         27.88566        50.19540         0.51590
C         30.82396        23.12166        -1.99335
C         29.62451        22.40529        -1.76534
C         30.80351        24.53303        -1.85137
C         29.60781        25.21309        -1.46739
C         30.73055        27.40254        -1.71212
C         29.61047        26.66706        -1.36060
C         30.66082        28.87120        -1.81562
C         29.44537        29.56809        -1.25414
C         30.77169        31.66238        -0.94844
C         29.59053        30.96208        -0.76689
C         30.87372        33.06531        -0.46462
C         29.59756        33.78661        -0.04586
C         30.70591        35.97846        -0.44290
C         29.52341        35.24387        -0.17617
C         30.62623        37.41135        -0.46736
C         29.36013        38.05205        -0.32445
C         30.55712        40.27463        -0.18057
C         29.28654        39.54562        -0.55555
C         30.52725        41.63446         0.16729
C         29.24562        42.27512         0.48593
C         30.46911        44.52210         0.58218
C         29.21076        43.76713         0.70650
C         30.40934        45.94454         0.63039
C         29.14679        46.62995         0.59610
C         30.32893        48.79351         0.81565
C         29.10541        48.06014         0.62444
C         30.32288        50.24312         0.76644
C         29.05854        50.89718         0.58763
C         33.18002        20.73412        -3.65846
C         32.03721        21.20570        -3.03392
C         33.28018        23.19448        -2.31062
C         32.04960        22.48229        -2.42534
C         33.23885        24.59668        -2.01404
C         32.02818        25.26442        -1.98915
C         33.25840        27.46880        -2.03424
C         31.95838        26.73466        -2.29634
C         33.23547        28.94292        -2.18157
C         31.91283        29.67607        -2.00720
C         33.14652        31.81411        -1.68549
C         31.94259        31.08177        -1.56402
C         33.13043        33.24554        -1.46613
C         32.00681        33.89307        -0.92058
C         33.12420        36.10652        -1.01390
C         31.94557        35.31278        -0.76139
C         33.04664        37.54159        -0.91272
C         31.83212        38.18418        -0.63826
C         32.98816        40.36859        -0.23057
C         31.79236        39.62415        -0.39353
C         32.94621        41.72542         0.13496
C         31.71713        42.39303         0.31225
C         32.91780        44.59611         0.49630
C         31.68997        43.83787         0.50500
C         32.87827        46.01199         0.64072
C         31.61644        46.68674         0.70600
C         32.79246        48.79754         1.24000
C         31.55518        48.09751         0.88090
C         32.75633        50.36198         1.29832
C         31.52021        50.98654         0.81893
C         32.78380        53.03441         0.33735
C         31.64699        52.30229         0.22876
C         36.49651        19.03203        -3.77972
C         36.44340        20.43047        -3.67141
C         34.38254        21.45877        -3.55380
C         35.80365        23.28795        -2.55677
C         34.51235        22.60687        -2.75620
C         35.77672        24.65321        -2.15429
C         34.50684        25.31472        -1.65284
C         35.69996        27.54572        -1.80462
C         34.44566        26.81258        -1.87492
C         35.69919        29.00141        -1.85297
C         34.46953        29.71986        -1.98513
C         35.65603        31.88068        -2.05564
C         34.39408        31.12670        -1.95262
C         35.67385        33.37330        -1.94178
C         34.30964        34.06802        -1.75749
C         35.60539        36.19104        -1.59638
C         34.32349        35.47421        -1.37911
C         35.58880        37.68814        -1.40777
C         34.25439        38.34940        -1.18526
C         35.54585        40.40802        -0.40975
C         34.25442        39.77687        -0.71110
C         35.51185        41.76844         0.15560
C         34.19671        42.46318         0.39959
C         35.37931        44.67205         0.32298
C         34.17246        43.93489         0.40406
C         35.32178        46.09274         0.44022
C         34.10378        46.75939         0.67362
C         35.26922        48.94117         1.06288
C         34.08670        48.17311         0.97894
C         35.24316        50.39764         1.20936
C         34.02910        51.08476         1.20545
C         35.20054        53.35534         1.19861
C         33.87398        52.59614         1.28915
C         35.26018        54.72871         0.67608
C         38.45474        19.03086        -2.34471
C         37.46449        18.33752        -3.07981
C         38.46867        20.46732        -2.35233
C         37.36206        21.20138        -2.94341
C         38.20201        23.51009        -2.62447
C         37.08412        22.65900        -2.75916
C         38.22420        24.79371        -2.06484
C         36.95206        25.41340        -1.93509
C         38.20975        27.57456        -1.88712
C         36.89598        26.84472        -1.73870
C         38.12960        29.00430        -1.43054
C         36.91311        29.69052        -1.64381
C         38.13207        31.89241        -1.30838
C         36.96146        31.15060        -1.80091
C         38.09396        33.32693        -1.21239
C         36.89340        34.06319        -1.49158
C         38.07718        36.20057        -1.08168
C         36.89076        35.46994        -1.37790
C         38.03578        37.64286        -0.97420
C         36.83806        38.36850        -1.00772
C         37.97983        40.53762        -0.42738
C         36.76467        39.77797        -0.64182
C         37.94915        41.90841        -0.18059
C         36.69642        42.61238        -0.01559
C         37.93809        44.73304        -0.16064
C         36.64112        43.98476         0.12334
C         37.88010        46.21180         0.20026
C         36.55443        46.89849         0.39378
C         37.73656        48.99983         0.93348
C         36.52774        48.29171         0.88700
C         37.71617        50.43770         1.03458
C         36.49859        51.11468         1.15885
C         37.74748        53.30787         0.81352
C         36.51586        52.59387         1.22153
C         37.72553        54.68825         0.53998
C         36.44345        55.35542         0.44292
C         40.39358        16.14048        -0.85334
C         39.45123        16.84758        -1.56870
C         40.46503        18.94650        -0.87386
C         39.45557        18.27323        -1.60693
C         40.52183        20.37331        -0.90306
C         39.59765        21.09114        -1.69810
C         40.65296        23.23294        -1.01019
C         39.90108        22.46251        -1.89640
C         40.56096        24.68978        -0.98046
C         39.44433        25.42707        -1.53217
C         40.46895        27.53048        -0.76111
C         39.38905        26.81760        -1.33711
C         40.46677        28.97022        -0.68379
C         39.28382        29.70398        -1.04333
C         40.48346        31.81725        -0.59781
C         39.27370        31.14507        -0.93962
C         40.52577        33.27880        -0.76812
C         39.27329        34.04530        -0.89010
C         40.49631        36.13056        -0.34769
C         39.30598        35.46932        -0.81141
C         40.56753        37.60920        -0.38066
C         39.31987        38.37038        -0.80385
C         40.46332        40.48334         0.15167
C         39.27816        39.84691        -0.54665
C         40.23590        41.82160         0.76667
C         39.13056        42.63115         0.24158
C         40.27190        44.70165         0.94902
C         39.11904        43.99589         0.42806
C         40.20751        46.14869         1.09498
C         39.06521        46.86981         0.79101
C         40.18750        49.03735         1.07377
C         39.00309        48.30755         0.94157
C         40.19041        50.46037         0.95149
C         38.96316        51.16137         0.93161
C         40.20295        53.26864         0.57422
C         38.96803        52.57919         0.76717
C         40.18828        54.68198         0.40681
C         38.96764        55.38414         0.29787
C         40.13966        57.41611        -0.47299
C         38.98924        56.75060        -0.18064
C         42.43770        16.09752         0.56825
C         41.43115        16.80613        -0.14312
C         42.53530        18.91959         0.49614
C         41.47248        18.22618        -0.16307
C         42.59809        20.35386         0.44485
C         41.57730        21.07509        -0.23486
C         42.62602        23.18372         0.48235
C         41.58929        22.50294        -0.19802
C         42.48218        24.66108         0.70440
C         41.53952        25.37982        -0.24036
C         42.70337        27.49831         0.29728
C         41.55867        26.79687        -0.21437
C         42.74356        28.91005         0.24642
C         41.60176        29.65674        -0.20559
C         42.82307        31.79369         0.21856
C         41.63165        31.10014        -0.21218
C         42.87175        33.20356         0.26733
C         41.77858        34.00453        -0.29712
C         42.80162        36.07870         0.60462
C         41.67218        35.43643         0.03299
C         42.78119        37.51094         0.85411
C         41.63170        38.29708         0.41085
C         42.56626        40.32829         1.53913
C         41.55535        39.64690         0.69040
C         42.65904        41.80895         1.52562
C         41.41009        42.55660         1.34689
C         42.65739        44.71147         1.88132
C         41.41666        44.01611         1.33218
C         42.72390        46.13304         1.41108
C         41.43702        46.84861         1.50867
C         42.71080        48.99868         0.97401
C         41.45131        48.34907         1.36745
C         42.65004        50.36603         0.70292
C         41.44133        51.14219         0.79440
C         42.67669        53.26211         0.36649
C         41.44410        52.55035         0.57635
C         42.72905        54.64579         0.19804
C         41.47203        55.40468         0.35579
C         42.69138        57.39468        -0.68986
C         41.44801        56.87260        -0.10117
C         43.44122        16.77270         1.22874
C         44.57498        18.91526         1.89798
C         43.51995        18.19524         1.20920
C         44.70595        20.33349         1.74262
C         43.68711        21.04944         1.03669
C         44.90076        23.17886         1.50424
C         43.71539        22.47937         1.03532
C         44.94860        24.60643         1.29607
C         43.81391        25.34211         0.86176
C         45.06360        27.43975         1.02386
C         43.85415        26.74652         0.73626
C         45.09407        28.86683         0.97872
C         43.93287        29.61052         0.63636
C         45.15040        31.72032         1.04009
C         43.96794        31.03805         0.64128
C         45.17270        33.15523         1.11680
C         44.00712        33.89612         0.76540
C         45.17062        35.97283         1.37330
C         43.99206        35.32591         0.91853
C         45.11712        37.39674         1.87097
C         43.88890        38.13620         1.40335
C         45.08487        40.30206         2.08909
C         43.84662        39.53734         1.82550
C         44.93500        41.64854         2.28952
C         43.82452        42.47152         1.85365
C         45.08562        44.60319         1.25015
C         43.93724        43.93352         1.66602
C         45.12220        46.01763         0.92362
C         43.90795        46.79013         1.09954
C         45.12352        48.82614         0.42061
C         43.91502        48.22008         0.82117
C         45.12790        50.25725         0.06449
C         43.86160        51.03818         0.21753
C         45.24629        53.20113         0.13811
C         43.93729        52.50920         0.42714
C         45.17483        54.61662        -0.27316
C         43.95057        55.31873        -0.18185
C         43.85074        56.69219        -0.65067
C         46.39513        18.93737         3.49314
C         45.44682        18.23231         2.77058
C         46.55532        20.31262         3.27683
C         45.78951        21.05213         2.35443
C         47.27443        23.17572         2.23389
C         45.99948        22.48245         2.07355
C         47.36078        24.54636         1.85143
C         46.18382        25.28613         1.50012
C         47.47225        27.39370         1.49930
C         46.23313        26.70127         1.34784
C         47.51003        28.80902         1.46455
C         46.31042        29.55018         1.25970
C         47.55092        31.62572         1.64719
C         46.33370        30.96789         1.30943
C         47.51147        33.05376         1.91267
C         46.34286        33.84183         1.53488
C         47.63363        35.99873         1.77214
C         46.36571        35.25956         1.60827
C         47.64996        37.38905         1.75874
C         46.39526        38.21759         1.53203
C         47.72387        40.40591         1.83406
C         46.43781        39.59962         2.29244
C         47.67614        41.77163         1.22320
C         46.69906        42.64669         1.62318
C         47.44114        44.43119         0.05891
C         46.29678        43.82268         0.87654
C         47.45791        45.90951        -0.03618
C         46.29412        46.64880         0.40202
C         47.54822        48.76726        -0.09137
C         46.32430        48.08040         0.24847
C         47.58999        50.18928        -0.13107
C         46.41544        50.97862        -0.03327
C         47.64393        53.05802        -0.56756
C         46.44134        52.37661        -0.18267
C         47.55948        54.46811        -0.85951
C         46.39440        55.18801        -0.75762
C         49.78141        20.62166         3.56495
C         48.60160        21.34946         3.38606
C         49.80149        23.14877         2.34584
C         48.53239        22.54341         2.62632
C         49.84804        24.53290         1.98295
C         48.62723        25.23633         1.81901
C         49.92437        27.33347         1.55468
C         48.67592        26.65054         1.63801
C         49.96658        28.75961         1.52559
C         48.75810        29.49363         1.57841
C         50.03424        31.61342         1.66528
C         48.76840        30.91711         1.70594
C         50.05902        33.01703         1.54083
C         48.91296        33.81263         1.88388
C         50.05418        35.87104         1.21352
C         48.87926        35.26027         1.62932
C         50.16619        37.32676         1.33700
C         48.92585        38.11469         1.72761
C         50.06748        40.21727         0.73099
C         48.94756        39.60448         1.51338
C         49.98685        41.56118         0.33437
C         48.77479        42.33095         0.46434
C         49.81690        44.29744        -0.66832
C         48.70042        43.66627         0.03546
C         49.77832        45.79641        -0.96519
C         48.61442        46.56448        -0.46714
C         49.92784        48.61524        -0.84931
C         48.72605        47.99896        -0.43145
C         50.07260        50.07156        -0.74006
C         48.85760        50.89956        -0.33412
C         50.12403        52.94139        -0.95454
C         48.84652        52.33444        -0.66663
C         50.97713        21.10655         3.04091
C         52.29655        23.02307         2.18508
C         51.02733        22.40833         2.50128
C         52.37142        24.52218         2.25388
C         51.09670        25.21838         1.85145
C         52.39790        27.26127         1.13038
C         51.13445        26.57977         1.58711
C         52.45098        28.73772         1.43456
C         51.22942        29.46638         1.50832
C         52.55445        31.63230         1.63167
C         51.24685        30.87417         1.54702
C         52.49378        32.96142         0.92859
C         51.15420        33.61903         0.70841
C         52.35242        35.74262         0.32490
C         51.22340        35.12453         0.80122
C         52.37066        37.19397         0.04175
C         51.21950        38.01411         0.54609
C         52.43062        40.09460        -0.04054
C         51.27485        39.49540         0.53247
C         52.39811        41.42829        -0.42277
C         51.21432        42.22977        -0.11347
C         52.26560        44.30677        -1.28198
C         51.15687        43.67431        -0.56227
C         52.25707        45.69396        -1.47481
C         51.06780        46.47154        -1.21364
C         52.33004        48.54732        -1.62497
C         51.09750        47.86979        -1.25067
C         52.37063        49.95713        -1.74509
C         51.07963        50.74669        -1.65091
C         51.20988        52.21258        -1.32075
C         54.72700        22.95744         1.85004
C         53.49694        22.31855         2.06583
C         54.83356        24.36157         1.65475
C         53.63227        25.12839         1.68255
C         54.90061        27.16751         1.27920
C         53.66636        26.50283         1.42344
C         54.93181        28.63261         1.32605
C         53.68419        29.41696         1.31269
C         54.94119        31.47526         0.73684
C         53.75824        30.82172         1.22616
C         54.89161        32.86960         0.35151
C         53.62699        33.55428         0.42459
C         54.77023        35.66041        -0.52778
C         53.51896        34.93771        -0.10500
C         54.79494        37.14575        -0.50345
C         53.65550        37.86247        -0.25427
C         54.86081        39.98866        -0.82024
C         53.74973        39.34968        -0.01870
C         54.79811        41.32858        -1.21635
C         53.49193        42.01895        -1.20177
C         54.70457        44.17790        -1.90651
C         53.43730        43.49665        -1.61965
C         54.68923        45.59420        -2.03182
C         53.48820        46.35432        -1.83420
C         54.72621        48.44830        -2.26984
C         53.51182        47.78028        -1.90820
C         54.72233        49.85298        -2.36154
C         53.56493        50.58614        -2.12311
C         57.30870        24.29411         1.20792
C         56.08619        25.01890         1.34810
C         57.34833        27.11035         0.84498
C         56.11833        26.43656         1.20149
C         57.39211        28.50831         0.56487
C         56.22502        29.34605         0.91379
C         57.22542        31.33795        -0.25699
C         56.09924        30.72311         0.45279
C         57.27552        32.80944        -0.32896
C         56.05751        33.54019        -0.13882
C         57.24578        35.61885        -0.77050
C         56.05396        34.93376        -0.44756
C         57.23028        37.05265        -1.01100
C         56.04891        37.81221        -0.81687
C         57.20723        39.87721        -1.55765
C         56.04331        39.22457        -1.04160
C         57.16504        41.27553        -1.87270
C         55.93995        42.00541        -1.74309
C         57.11017        44.08533        -2.41602
C         55.89876        43.41451        -2.03772
C         57.09784        45.50429        -2.60439
C         55.90880        46.26845        -2.38384
C         57.13913        48.31053        -2.93158
C         55.92836        47.68040        -2.53254
C         58.48511        24.92745         0.88586
C         59.72207        26.97889         0.23881
C         58.53045        26.33831         0.66349
C         59.73422        28.32932        -0.06239
C         58.56521        29.11432         0.08105
C         59.75073        31.35039        -0.44921
C         58.53316        30.53439        -0.38067
C         59.70363        32.69354        -0.65911
C         58.47343        33.45935        -0.66162
C         59.64580        35.59582        -1.23819
C         58.47492        34.88958        -0.87027
C         59.62174        36.95240        -1.51140
C         58.43179        37.71621        -1.41362
C         59.55579        39.81161        -2.20673
C         58.40868        39.12863        -1.72488
C         59.52458        41.16173        -2.49477
C         58.34479        41.93378        -2.33410
C         59.49101        44.05344        -3.00385
C         58.31888        43.35327        -2.59349
C         59.48098        45.41397        -3.20313
C         58.29485        46.17133        -2.99403
C         58.28553        47.58061        -3.16101
O         51.23627        37.54987        -0.85911
O         32.47238        29.43490        -3.34777
O         46.02506        42.36334         2.81000
O         35.93856        53.17285         2.45786
O         32.65995        49.53274         2.49302
O         49.95049        37.75268         2.71424
O         30.59913        33.26856         0.97167
O         46.35557        43.68341        -0.58488
O         40.36065        38.05449        -1.77271
O         24.60430        39.76918        -0.80771
O         47.48508        20.93676         4.11497
O         34.07482        39.43515        -2.15205
O         36.52271        31.50065        -3.17355
O         41.38803        47.70795         2.70911
O         26.84492        30.40945        -1.49171
O         34.94508        41.85580         1.52474
O         40.30982        40.56557        -1.29701
O         29.61390        29.38633        -2.71141
O         40.35780        41.91699         2.20866
O         37.27041        46.93279        -0.92675
O         34.96422        33.93058        -3.07897
O         48.79003        40.29274         2.82694
O         55.86132        29.15960         2.33329
O         42.79769        39.74030         2.85237
O         35.42929        21.06597        -4.40024
O         41.56606        56.51081         1.31090
O         41.55549        33.72265        -1.72271
O         49.95711        50.56707         0.61392
O         49.47075        44.78535        -1.99651
O         35.63830        37.09524        -2.75131
O         53.08170        42.40946        -2.56449
O         29.22021        42.84915         1.85845
O         44.26880        50.58259        -1.11932
O         51.55190        43.38011         0.82909
O         44.79905        52.93325         1.53106
O         39.43384        23.02774        -3.08339
O         48.21795        33.45700         3.10869
O         26.00070        46.10386        -1.04355
O         57.62340        30.68798        -1.52102
O         53.84376        35.08404        -1.53174
O         52.47151        24.80148         3.71178
H         53.26414        24.32641         4.04233
O         38.13564        44.64920        -1.60201
H         37.66841        45.42438        -1.99367
O         34.58693        25.17530        -0.18037
H         34.62894        24.21603         0.02024
O         28.83795        31.19320         1.49214
H         29.58862        31.79339         1.72952
O         31.76719        26.79525        -3.74918
H         31.78345        27.75355        -3.99650
O         52.74626        31.95315         3.06607
H         52.91756        31.10858         3.53525
O         50.47095        50.66230        -2.98423
H         51.12079        51.00045        -3.63558
O         29.16870        39.71820        -2.01272
H         29.93152        39.26311        -2.42981
O         46.59261        39.35644         3.69568
H         47.54303        39.52583         3.92083
O         52.31281        27.21393        -0.35025
H         51.50138        27.70004        -0.61253
O         45.00137        37.24666         3.30787
H         45.33526        38.06558         3.74993
O         46.36406        38.57607         0.12827
H         46.29311        37.75694        -0.40606
O         38.44392        27.66025        -3.34191
H         37.73918        28.22641        -3.72454
O         54.18716        39.45909         1.39074
H         54.20708        40.41117         1.62705
O         24.81430        42.21709         2.77356
H         25.64738        42.73180         2.84305
O         33.34913        52.86560         2.62215
H         34.11932        52.82138         3.23476
O         41.81797        24.79167         2.02604
H         42.39800        24.35421         2.68552
O         25.22710        35.53137        -1.27964
H         24.39878        36.04704        -1.38210
O         50.77640        33.32540        -0.68723
H         51.43030        33.76921        -1.27134
O         42.47005        44.76880         3.33885
H         41.86792        45.51858         3.53880
H         22.90638        26.46726         1.19160
H         22.83992        28.90869         1.44895
H         22.77767        30.83119         1.56323
H         22.74486        33.25498         1.76244
H         22.90849        35.18175         2.16158
H         22.65574        37.59851         1.83374
H         22.19954        39.49294         1.20482
H         22.23887        41.84309         1.70593
H         22.16708        43.85368         1.40462
H         22.07928        46.29722         1.13360
H         26.09313        23.29764        -0.38931
H         24.10147        24.39953         0.52104
H         25.27483        49.74489         0.32449
H         23.22154        48.46821         0.50883
H         27.58371        22.45733        -1.15291
H         26.94283        50.75084         0.42296
H         29.60561        21.31237        -1.87794
H         29.02860        51.99545         0.56892
H         33.15459        19.81945        -4.26481
H         31.09713        20.64503        -3.12419
H         32.85469        54.00656        -0.17170
H         30.81762        52.68219        -0.38690
H         35.74837        18.50752        -4.38748
H         34.32012        55.26912         0.49384
H         37.46355        17.24178        -3.12416
H         36.41566        56.40253         0.11197
H         40.35761        15.04147        -0.83822
H         38.68270        16.28061        -2.10983
H         40.10108        58.38328        -0.99610
H         38.03510        57.23346        -0.43257
H         42.41126        14.99834         0.58256
H         42.66687        58.38766        -1.16354
H         44.20389        16.18748         1.75948
H         44.75064        57.16213        -1.07053
H         47.02909        18.43526         4.23492
H         45.34696        17.15217         2.93405
H         48.46401        54.98603        -1.20694
H         46.42237        56.25102        -1.03338
H         49.75822        19.68742         4.14049
H         50.22537        54.03218        -0.85161
H         51.89915        20.52476         3.17234
H         52.16210        52.73225        -1.49801
H         55.62566        22.32916         1.78825
H         53.49246        21.21984         2.11695
H         55.63452        50.39785        -2.63566
H         53.60507        51.67815        -2.23512
H         57.31374        23.20394         1.34314
H         57.17527        49.39931        -3.06686
H         59.40914        24.34339         0.76613
H         60.63520        26.37995         0.11115
H         60.65915        28.79238        -0.43309
H         60.72515        30.86229        -0.30168
H         60.65645        33.23586        -0.73273
H         60.60061        35.06260        -1.33721
H         60.56116        37.43718        -1.80819
H         60.49771        39.26830        -2.35900
H         60.44533        41.63467        -2.86059
H         60.42919        43.50560        -3.16142
H         60.39818        45.93412        -3.51464
H         59.21061        48.08880        -3.46885
