         618
 CSIRO Nanostructure Databank - Neutral Graphene Oxide Data Set
C         23.16075        69.87427         0.67068
C         23.14345        71.31812         0.84954
C         22.04261        71.96682         1.40021
C         23.16641        74.11734         1.27452
C         22.05062        73.36924         1.58624
C         25.37497        65.66071        -0.21582
C         25.33109        67.01138        -0.40812
C         24.02792        67.77208        -0.38244
C         25.25704        70.03979        -0.65057
C         24.15964        69.23243         0.01692
C         25.43970        71.42358        -0.04467
C         24.30478        72.07776         0.48890
C         25.51391        74.21420         0.48450
C         24.33798        73.48938         0.74992
C         27.85069        61.31739        -0.21688
C         27.79132        62.70053        -0.33676
C         26.59444        63.48299        -0.18658
C         27.84702        65.57990        -0.45580
C         26.59548        64.87269        -0.31232
C         27.85826        67.03310        -0.73043
C         26.54186        67.76210        -0.81625
C         27.89543        69.96301        -0.54737
C         26.57570        69.27087        -0.79607
C         27.91022        71.42356        -0.26615
C         26.66330        72.12201        -0.12275
C         27.92941        74.24541        -0.02960
C         26.70213        73.54688         0.11515
C         30.38985        57.01813         0.16654
C         30.35524        58.42429        -0.00461
C         29.13248        59.15326        -0.10840
C         30.31462        61.27283        -0.33811
C         29.09892        60.57642        -0.24563
C         30.34817        62.69644        -0.64556
C         29.02539        63.44032        -0.67412
C         30.30732        65.61221        -0.49514
C         29.05006        64.90234        -0.52126
C         30.30363        66.99658        -0.29534
C         29.10398        67.78105        -0.42962
C         30.32464        69.88917         0.16989
C         29.10569        69.15776        -0.26562
C         30.36919        71.38651         0.09325
C         29.11059        72.10963        -0.19266
C         30.40099        74.19252        -0.32231
C         29.14597        73.55060        -0.17792
C         32.87464        52.78915         1.15686
C         32.87805        54.25255         0.75098
C         31.67171        54.90847         0.52867
C         32.84244        57.05392         0.36470
C         31.61353        56.32151         0.32788
C         32.81149        58.47617         0.21026
C         31.60330        59.13298        -0.01077
C         32.70904        61.36907         0.39914
C         31.64622        60.59128        -0.38590
C         32.81075        62.80871        -0.08332
C         31.58993        63.47231        -0.43355
C         32.80396        65.58724        -0.48833
C         31.55526        64.86567        -0.47365
C         32.79864        66.96307        -0.35164
C         31.57593        67.67883         0.01522
C         32.92650        69.90782         0.05958
C         31.63510        69.16537         0.19490
C         32.89904        71.37869         0.07229
C         31.67239        72.06931        -0.06191
C         32.83681        74.16272        -0.66401
C         31.63847        73.48343        -0.34992
C         35.38436        48.57015         0.24207
C         35.36052        49.97133         0.34425
C         34.15364        50.68107         0.64377
C         35.36626        52.79416         0.65824
C         34.15180        52.05372         0.80176
C         35.36268        54.22135         1.15541
C         34.10449        54.97325         0.73606
C         35.30585        57.13822         0.64090
C         34.07651        56.36777         0.56741
C         35.29316        58.54138         0.53476
C         34.04696        59.25215         0.32795
C         35.23539        61.40588         0.66293
C         34.02457        60.62869         0.34739
C         35.22195        62.90220         0.55564
C         34.00728        63.51692        -0.02587
C         35.29406        65.56929        -0.62014
C         34.07167        64.89058        -0.44913
C         35.27134        66.98697        -1.02737
C         33.97779        67.73514        -0.67444
C         35.40148        69.55023         0.15168
C         34.06768        69.13380        -0.18678
C         35.38041        71.68653         0.33286
C         34.10343        72.17083        -0.03618
C         35.32656        74.14623        -0.85143
C         34.08936        73.51385        -0.54502
C         37.86248        44.38092        -0.59634
C         37.82652        45.80526        -0.43393
C         36.62268        46.46698        -0.17876
C         37.78302        48.62880        -0.29480
C         36.58028        47.87841        -0.04941
C         37.73548        50.03766        -0.29548
C         36.55772        50.72297         0.07511
C         37.69800        52.91638        -0.20946
C         36.53057        52.15784         0.22836
C         37.65543        54.44056        -0.23914
C         36.72623        54.95325         0.92909
C         37.71782        57.18134         0.79330
C         36.54693        56.45531         0.78654
C         37.74201        58.60469         0.77284
C         36.50721        59.29830         0.65153
C         37.74238        61.43521         0.64821
C         36.52583        60.70954         0.65946
C         37.78047        62.86496         0.51733
C         36.52177        63.71268         0.64042
C         37.76317        65.57951        -0.42308
C         36.55488        64.95555        -0.23702
C         37.82831        66.96319        -0.98201
C         36.56244        67.81702        -1.20639
C         37.83167        69.85776        -0.27719
C         36.59687        69.08405        -0.35886
C         37.85498        71.37369         0.16201
C         36.59087        72.17913        -0.11999
C         37.81089        74.13152        -1.00523
C         36.57637        73.49048        -0.71198
C         40.22108        40.03889        -0.91216
C         40.23582        41.54120        -0.79256
C         39.09604        42.25957        -0.92035
C         40.30594        44.40732        -0.55148
C         39.05788        43.69397        -0.68191
C         40.30975        45.83133        -0.56761
C         39.05563        46.55523        -0.54681
C         40.26852        48.73942        -0.74210
C         39.02064        47.95686        -0.54665
C         40.28426        50.21032        -0.53238
C         38.89506        50.76355        -0.93133
C         40.63759        53.25492        -0.66299
C         38.68846        52.23461        -0.83911
C         40.43355        54.51134         0.00170
C         39.06328        55.15046        -0.05091
C         40.13928        57.09873         1.33955
C         39.00458        56.49111         0.58963
C         40.15924        58.59672         1.34825
C         38.95437        59.31783         0.89340
C         40.22751        61.42397         0.86179
C         38.97885        60.72013         0.78459
C         40.23915        62.80739         0.62516
C         39.00260        63.51829         0.43231
C         40.32834        65.48944        -0.39945
C         39.01982        65.03201         0.27405
C         40.37666        67.02003        -0.49232
C         39.08612        67.74156        -0.77258
C         40.30168        69.90864        -0.25513
C         39.04057        69.21349        -0.51420
C         40.32335        71.36197        -0.61222
C         39.03690        72.08509        -0.44047
C         40.30902        74.10933        -1.04919
C         39.04396        73.44591        -0.83120
C         42.86152        36.01677        -1.60037
C         42.82450        37.36218        -1.75542
C         41.58197        38.09299        -1.58972
C         42.79273        40.18324        -1.10657
C         41.55512        39.41892        -1.27622
C         42.75721        41.47427        -0.63845
C         41.48168        42.18562        -0.23952
C         42.74155        44.38705        -0.47341
C         41.53223        43.69064        -0.49261
C         42.76489        45.81702        -0.40199
C         41.53633        46.52240        -0.47176
C         42.78022        48.71990        -0.19002
C         41.58212        47.98548        -0.63022
C         42.75241        50.12062        -0.06893
C         41.50334        50.87311        -0.35472
C         42.86609        52.97566         0.12090
C         41.61388        52.33426        -0.28859
C         42.81750        54.47265         0.54121
C         41.49863        55.09799         0.65146
C         42.63310        57.13614         1.58425
C         41.38505        56.28099         1.58385
C         42.65009        58.53162         1.57036
C         41.44321        59.30725         1.38418
C         42.70199        61.39477         1.17332
C         41.45693        60.68769         1.14126
C         42.73181        62.80855         0.98497
C         41.50505        63.53379         0.65296
C         42.82481        65.59780         0.38653
C         41.54671        64.86230         0.28499
C         42.81361        67.09544         0.31707
C         41.57285        67.82123        -0.10273
C         42.60380        70.00671         0.83784
C         41.46806        69.28247         0.10180
C         42.64804        71.50661         0.56766
C         41.43109        72.18816         0.00676
C         42.77907        74.15185        -0.63577
C         41.52366        73.54272        -0.60241
C         45.33615        33.27990        -2.41300
C         44.14700        33.89583        -2.17378
C         45.36716        36.04187        -1.81330
C         44.13665        35.23335        -1.47679
C         45.33510        37.39781        -1.91102
C         44.04606        38.17345        -2.11712
C         45.26114        40.22519        -1.32055
C         44.06757        39.54267        -1.44994
C         45.29197        41.54195        -0.71711
C         44.01748        42.20845        -0.26900
C         45.25477        44.36643        -0.27318
C         44.02805        43.65631        -0.77632
C         45.30435        45.85610        -0.42088
C         43.98202        46.54835        -0.21662
C         45.17834        48.60607         0.45539
C         43.97616        47.94858         0.02827
C         45.16213        50.02788         0.66052
C         43.96828        50.78056         0.37457
C         45.18415        52.87382         0.98573
C         44.02514        52.19182         0.54925
C         45.15927        54.28626         1.33475
C         43.94999        54.99087         1.32074
C         45.18292        57.11941         1.97577
C         43.85020        56.35287         1.83849
C         45.14580        58.55698         1.70240
C         43.91683        59.24853         1.57718
C         45.16974        61.33274         1.26478
C         43.91875        60.65993         1.36714
C         45.20310        62.78288         1.20322
C         43.96110        63.49216         1.07728
C         45.18309        65.62942         1.14915
C         44.01652        64.92713         0.96812
C         45.17262        67.11253         1.20405
C         43.91167        67.87724         0.95114
C         45.17210        70.01618         0.88225
C         43.96142        69.33527         0.71524
C         45.16477        71.51145         0.88666
C         43.92654        72.19957         0.45257
C         45.19517        74.18560        -0.22808
C         43.97372        73.50994        -0.12248
C         46.58809        33.94821        -2.19555
C         47.86158        36.04101        -1.87493
C         46.63195        35.31499        -1.94022
C         47.88531        37.43389        -1.85246
C         46.59906        38.15104        -2.04955
C         47.83694        40.32663        -1.48555
C         46.54544        39.63127        -1.79964
C         47.76638        41.67145        -0.85075
C         46.44941        42.24298        -0.48936
C         47.62687        44.30589         0.36124
C         46.42143        43.64949        -0.07487
C         47.62762        45.69758         0.61351
C         46.44421        46.47962         0.33687
C         47.54540        48.45828         1.30041
C         46.36597        47.82696         0.68047
C         47.54828        49.96181         1.45454
C         46.34560        50.71891         1.05672
C         47.62694        52.80514         1.47119
C         46.39389        52.12955         1.17906
C         47.65176        54.23792         1.61975
C         46.39446        54.97095         1.64513
C         47.64877        57.11146         1.74297
C         46.42491        56.36796         1.77928
C         47.63686        58.48406         1.53248
C         46.38202        59.21197         1.46037
C         47.61516        61.31688         0.82779
C         46.36645        60.60166         1.24093
C         47.66645        62.72872         1.37608
C         46.40443        63.47315         1.31109
C         47.72753        65.61508         1.07756
C         46.45447        64.94812         1.59066
C         47.69758        67.04794         0.70928
C         46.40561        67.84262         0.81021
C         47.72083        69.96218         0.93282
C         46.41249        69.30925         0.93301
C         47.77238        71.51767         0.80950
C         46.46542        72.27666         0.87168
C         47.69356        74.20539        -0.24046
C         46.45371        73.76286         0.48592
C         49.07603        38.16194        -1.58508
C         50.26068        40.21365        -0.90097
C         49.09088        39.54141        -1.32588
C         50.25083        41.51082        -0.32781
C         48.92790        42.12607        -0.03934
C         50.10882        44.12624         1.02208
C         48.82855        43.47660         0.60142
C         50.07227        45.61165         1.28528
C         48.82152        46.36225         1.06158
C         50.05808        48.46698         1.45056
C         48.84342        47.75301         1.24603
C         50.06466        49.90680         1.53235
C         48.85002        50.64679         1.49093
C         50.10230        52.73425         1.70337
C         48.85767        52.06265         1.53693
C         50.10096        54.17333         1.96108
C         48.85243        54.91902         1.81528
C         50.17612        57.07475         1.57476
C         48.92236        56.40035         2.11632
C         50.14882        58.45212         1.24934
C         48.88995        59.19963         1.30472
C         50.07437        61.28745         0.63239
C         48.87512        60.55260         1.07377
C         50.16290        62.73900         0.79746
C         48.97070        63.47480         1.27265
C         50.18801        65.60270         0.75825
C         48.92516        64.94099         1.05333
C         50.18516        67.04857         0.57789
C         48.95315        67.78779         0.62142
C         50.09189        69.90794         0.13905
C         48.93217        69.20047         0.52734
C         50.09427        71.31858        -0.10204
C         48.91943        72.08630         0.10992
C         50.07330        74.07264        -0.80850
C         48.85173        73.45839        -0.34012
C         51.41104        42.20851         0.02042
C         52.56471        44.24418         0.78300
C         51.39879        43.51212         0.61200
C         52.58033        45.62813         1.20003
C         51.33751        46.34591         1.32716
C         52.53730        48.45722         1.62998
C         51.31407        47.75589         1.47871
C         52.55900        49.87395         1.55830
C         51.31023        50.60524         1.54413
C         52.56979        52.75724         1.51718
C         51.32409        52.03198         1.62002
C         52.62320        54.13892         1.53395
C         51.42990        54.93151         1.86156
C         52.59048        57.00608         1.08442
C         51.39388        56.36904         1.50202
C         52.57738        58.40362         0.80688
C         51.34762        59.09799         0.85694
C         52.61007        61.26552         0.37095
C         51.34988        60.51075         0.44222
C         52.59298        62.66249         0.30618
C         51.35331        63.40197         0.53247
C         52.65868        65.52792         0.53114
C         51.35935        64.85374         0.60278
C         52.64068        67.05803         0.29858
C         51.34608        67.71932         0.20376
C         52.52512        69.81222        -0.71565
C         51.26608        69.11075        -0.26249
C         52.52913        71.28493        -0.67079
C         51.30198        71.97739        -0.55690
C         52.52503        74.09977        -1.28324
C         51.26442        73.39197        -0.83061
C         53.78057        46.30032         1.40494
C         55.03977        48.44508         1.54734
C         53.80211        47.69900         1.94524
C         55.03518        49.82317         1.37970
C         53.79250        50.55051         1.45172
C         55.07258        52.69982         1.60614
C         53.81271        52.00837         1.09276
C         55.07562        54.15463         1.19191
C         53.85354        54.85261         1.23581
C         55.02688        56.90565         0.62489
C         53.83130        56.25482         0.99445
C         54.97742        58.29694         0.14764
C         53.77901        59.10617         0.40975
C         55.06602        61.19669        -0.05076
C         53.82241        60.50152         0.25765
C         55.05188        62.65737        -0.16166
C         53.84498        63.37042         0.08414
C         55.05853        65.50331        -0.13021
C         53.86781        64.78804         0.12582
C         55.03166        66.96210        -0.22208
C         53.85280        67.67753        -0.22726
C         55.02457        69.88798        -0.32320
C         53.85862        69.07421        -0.82295
C         55.01697        71.27263        -0.45987
C         53.77597        71.98043        -0.71174
C         55.00742        74.07627        -0.83386
C         53.79763        73.38763        -0.88449
C         56.26082        50.55336         1.14816
C         57.51533        52.67092         1.02479
C         56.32017        51.94466         1.20047
C         57.53511        54.09090         0.95519
C         56.28215        54.82893         0.93651
C         57.51428        56.94076         0.46214
C         56.26928        56.22353         0.63024
C         57.56896        58.32233         0.14549
C         56.28793        59.01660        -0.15604
C         57.49184        61.08478        -0.75284
C         56.24657        60.48831        -0.16694
C         57.49099        62.62148        -0.81598
C         56.24579        63.37550        -0.46439
C         57.49404        65.58542        -0.65304
C         56.24984        64.78975        -0.45696
C         57.46066        67.01658        -0.26060
C         56.28545        67.69572        -0.23985
C         57.51273        69.92212        -0.19939
C         56.25571        69.16416         0.13807
C         57.51116        71.29082        -0.30221
C         56.25448        72.02652        -0.38572
C         57.50056        74.22635        -0.70081
C         56.23601        73.40559        -0.60714
C         58.73001        54.81748         0.89553
C         59.91714        56.97351         0.88426
C         58.73381        56.23002         0.73235
C         59.98146        58.35879         0.64547
C         58.80117        59.04288         0.13611
C         59.94394        61.15098        -0.53427
C         58.78989        60.45981        -0.21707
C         60.09263        62.61615        -0.65150
C         58.80438        63.36826        -0.85798
C         60.03779        65.49865        -0.14733
C         58.83030        64.85804        -0.69079
C         60.00091        66.97777        -0.17344
C         58.72465        67.73534         0.11845
C         60.01836        69.91370         0.04807
C         58.79070        69.16562        -0.46151
C         59.97820        71.35262        -0.05826
C         58.78620        72.01393        -0.33199
C         59.98167        74.10185        -0.78375
C         58.79214        73.44675        -0.57654
C         61.17510        59.02397         1.10155
C         62.41802        61.22862         1.09714
C         61.61884        60.22526         0.54701
C         62.43670        62.61330         0.68567
C         61.33337        63.31751        -0.07843
C         62.33964        65.51121         0.67169
C         61.22688        64.80730         0.16234
C         62.36215        66.97469         0.71403
C         61.21748        67.75218         0.18358
C         62.48508        69.90012         0.50840
C         61.16091        69.22479         0.39460
C         62.52742        71.39626         0.24627
C         61.21742        72.18585         0.23495
C         62.42834        73.95683        -1.07658
C         61.25153        73.42824        -0.62468
C         63.49377        63.35138         1.16105
C         64.77859        65.45577         0.54982
C         63.57116        64.84333         1.23514
C         64.87445        66.82315         0.33759
C         63.70478        67.68953         0.61953
C         64.83921        69.68569        -0.29150
C         63.69104        69.09675         0.19227
C         64.85188        71.09370        -0.65483
C         63.71300        71.90615        -0.47488
C         64.83238        73.75884        -1.61010
C         63.68030        73.22264        -1.03631
C         66.00962        67.47496        -0.21507
C         67.17800        69.46554        -1.03670
C         66.02964        68.86175        -0.50281
C         67.19793        70.83406        -1.42430
C         66.02284        71.64071        -1.25888
C         67.21338        73.53607        -2.26877
C         66.02905        72.99711        -1.70072
C         68.35484        71.41514        -1.98969
C         68.35582        72.75261        -2.39832
O         43.28640        66.30644        -0.82859
O         29.66766        63.01361        -1.92519
O         52.87501        66.46103         1.63212
O         55.48958        58.41920        -1.22803
O         35.44903        70.54239         1.14635
O         48.46243        62.98041         2.58750
O         44.44207        56.64004         3.14028
O         48.03299        41.55973        -2.28215
O         30.18605        70.68208         1.39997
O         39.64170        52.92984        -1.58854
O         31.66043        68.26426         1.37743
O         43.21857        54.06519        -0.80323
O         48.57476        42.23416         1.37548
O         41.03997        48.38482        -1.94481
O         60.90184        67.46989        -1.24506
O         45.76029        72.07540         2.13343
O         34.96864        62.27624         1.87763
O         46.54823        39.11371        -3.17692
O         38.71023        67.22813        -2.11764
O         62.76308        70.85174         1.58013
O         41.30243        67.48252        -1.52528
O         50.02915        44.60220         2.39543
O         61.12844        60.47117        -0.75583
O         27.35291        69.76525        -1.92747
O         61.20970        63.02162        -1.50256
O         63.00070        67.54209         1.90613
O         27.19707        67.26543        -2.02949
O         46.85397        67.32084        -0.49794
O         41.61826        72.19144         1.43541
O         47.29931        49.07166         2.61344
O         34.34592        67.39419        -2.07122
O         58.26260        65.47968        -1.89921
O         39.77354        57.79308         2.56511
O         48.04612        70.84288         2.06346
O         50.47774        60.81264        -0.72163
O         44.35991        67.57260         2.32589
O         58.10356        63.02459        -2.08955
O         39.19897        56.35907        -0.88858
O         51.58555        69.28372        -1.72291
O         50.86825        54.59415         3.17513
O         52.53106        75.46126        -0.84795
H         52.50019        75.47369         0.13029
O         55.00510        52.66703         3.05654
H         55.83164        53.05586         3.41041
O         37.53689        54.72743         2.10403
H         36.93915        54.83359         2.88130
O         54.10706        68.89460        -2.25252
H         53.22495        68.79394        -2.68018
O         39.01151        65.62148         1.59949
H         38.21081        65.26625         2.06312
O         38.80195        50.45082        -2.35815
H         39.40593        51.06932        -2.82518
O         24.78160        70.26236        -2.01226
H         25.58264        70.43642        -2.55975
O         53.84122        47.57568         3.43521
H         53.01800        47.11591         3.70841
O         39.19774        39.59687        -1.80868
H         39.45994        39.84363        -2.71908
O         36.57373        64.26535         2.00004
H         36.17502        63.57883         2.58810
O         41.36757        42.05059         1.21770
H         42.23822        42.34026         1.58948
O         32.30032        61.41805         1.78891
H         33.06793        61.78260         2.29108
O         44.13148        43.62604        -2.22641
H         44.54952        44.47449        -2.50871
O         37.11894        54.86048        -1.49345
H         37.64328        55.64176        -1.78987
O         31.73665        52.10772         0.62624
H         31.82812        52.06954        -0.34768
O         63.64780        65.09701         2.67591
H         63.55926        66.07544         2.79758
O         57.44364        60.60097        -2.12423
H         57.85993        61.29385        -2.69128
O         58.89462        69.09674        -1.90329
H         59.67279        68.52666        -2.11871
O         36.57488        68.29710        -2.56285
H         36.73716        67.53903        -3.16174
O         53.87308        52.07435        -0.36734
H         53.10928        51.57580        -0.72581
O         42.25120        69.81482         2.23883
H         41.75611        70.62158         2.51923
O         40.31587        64.97849        -1.74525
H         40.90687        65.56126        -2.27475
O         35.19235        54.10197         2.61562
H         35.46825        53.19963         2.88310
O         44.05857        42.30656         1.19631
H         44.32617        41.43267         1.55143
O         46.41762        74.54168         1.72669
H         45.96057        73.96906         2.38974
O         41.27889        55.70735         2.91847
H         40.91897        56.41945         3.49650
O         46.53868        65.08371         3.05538
H         47.23404        64.44935         3.35378
O         56.21853        69.14388         1.63637
H         56.14544        70.07475         1.94014
O         23.08252        67.07173         0.41365
H         22.18690        67.40186         0.20268
O         49.00401        56.52265         3.57645
H         49.72167        55.90537         3.86629
O         58.71029        67.84438         1.57107
H         57.85029        68.26401         1.83529
O         43.94637        38.42000        -3.55169
H         44.80233        38.83710        -3.82249
O         32.08718        60.65910        -1.78227
H         31.34516        60.36470        -2.35161
O         38.05583        71.34112         1.60608
H         37.22624        70.98014         1.99590
O         47.52802        61.48723        -0.63219
H         48.31376        61.06943        -1.04957
O         44.24786        34.91546        -0.03914
H         45.03864        34.34458         0.06753
O         45.59868        46.06327        -1.88608
H         45.50552        47.02474        -2.06480
O         57.47563        75.26644         0.29938
H         57.37344        74.84557         1.17731
O         61.04748        72.68356         1.59828
H         60.26570        73.27494         1.59916
O         40.66468        71.36577        -2.04406
H         40.05956        70.74223        -2.50059
H         23.17580        75.20276         1.44953
H         25.53109        75.30269         0.64311
H         27.93660        75.34234         0.05273
H         30.42778        75.28760        -0.42404
H         32.79479        75.21574        -0.97779
H         35.31039        75.18044        -1.22545
H         37.81125        75.17237        -1.35981
H         40.30478        75.13088        -1.45800
H         42.88623        75.15684        -1.07110
H         45.20038        75.19085        -0.67791
H         47.72169        75.26124        -0.54969
H         50.05469        75.13881        -1.07835
H         52.50850        74.13339        -2.41093
H         55.01390        75.16229        -1.00509
H         57.49903        74.75865        -1.69004
H         59.97552        75.15392        -1.10740
H         62.42471        74.93214        -1.58806
H         64.81482        74.78335        -2.01017
H         67.21791        74.58106        -2.61036
H         22.31204        69.30113         1.07679
H         21.15646        71.38537         1.69309
H         21.16047        73.85936         2.00490
H         24.44066        65.13591         0.03388
H         23.65755        67.79009        -1.45700
H         26.92376        60.75496        -0.02677
H         25.64350        62.96013        -0.00239
H         29.44506        56.45419         0.18465
H         28.18169        58.60189        -0.05807
H         32.76336        52.76364         2.27790
H         30.73739        54.32761         0.55297
H         34.45621        48.00028         0.39695
H         33.21607        50.11964         0.76840
H         36.91044        43.83156        -0.64247
H         35.69622        45.88559        -0.06200
H         39.94017        39.64108         0.10548
H         38.16466        41.75406        -1.21912
H         41.92895        35.47919        -1.36403
H         40.63604        37.52945        -1.60607
H         45.35752        32.25406        -2.80978
H         43.19628        33.37008        -2.34426
H         47.52447        33.39361        -2.35138
H         48.80783        35.48155        -1.81850
H         50.00851        37.59231        -1.45081
H         51.22040        39.67697        -0.95669
H         52.38910        41.76425        -0.21977
H         53.52986        43.77472         0.53947
H         54.73245        45.75858         1.29988
H         55.98901        47.89078         1.49327
H         57.18196        49.97922         0.96162
H         58.46163        52.12439         0.88844
H         59.69161        54.29274         0.99520
H         60.82969        56.45392         1.21055
H         61.71597        58.58031         1.95066
H         63.04322        60.97173         1.96591
H         64.27996        62.81632         1.71656
H         65.60012        64.80217         0.22130
H         66.92245        66.88812        -0.39706
H         68.08312        68.85804        -1.19000
H         69.25988        70.80278        -2.11125
H         69.26608        73.18451        -2.83703
