         320
 CSIRO Nanostructure Databank - Neutral Graphene Oxide Data Set
C         31.01053        57.07978        -2.27837
C         30.99702        58.48719        -2.36190
C         30.12756        59.23545        -3.23141
C         31.59253        61.25289        -3.60861
C         30.43584        60.47069        -3.80743
C         33.12170        52.87774        -0.77555
C         33.01667        54.28717        -0.75212
C         32.01690        54.98874        -1.42147
C         33.08741        57.17224        -0.95878
C         32.00274        56.41955        -1.51307
C         33.14759        58.57441        -1.09907
C         31.98485        59.17848        -1.61057
C         33.77231        61.31226        -2.27511
C         32.41694        61.09193        -2.46584
C         35.31997        48.65436         0.02661
C         35.29141        50.03215         0.28285
C         34.24278        50.79048        -0.25574
C         35.27999        52.92806         0.48037
C         34.18237        52.19630        -0.15498
C         35.22190        54.30643         0.52006
C         34.02348        55.01891         0.04306
C         35.33711        57.25414         0.21741
C         34.08321        56.52336        -0.09763
C         35.35179        58.69453        -0.00913
C         34.31096        59.35887        -0.66764
C         35.67271        61.42034        -0.80633
C         34.53299        60.72569        -1.17680
C         37.74137        44.31967         0.11450
C         37.72744        45.72004         0.24170
C         36.50313        46.47652         0.10149
C         37.62019        48.50557         0.94488
C         36.43913        47.84242         0.33147
C         37.55881        49.92048         1.43212
C         36.24815        50.70627         1.26757
C         37.57070        52.86755         1.37363
C         36.43716        52.19627         0.99935
C         37.58677        54.35867         1.43208
C         36.31156        55.12149         1.08533
C         37.61830        57.30111         1.32175
C         36.39791        56.57788         0.77118
C         37.74090        58.74418         0.86224
C         36.47665        59.45125         0.57155
C         37.88920        61.59137         0.43627
C         36.58925        60.93975         0.21255
C         40.28853        40.06891        -0.13009
C         40.24864        41.48111        -0.12513
C         39.02088        42.19613        -0.05430
C         40.18900        44.35926         0.01463
C         38.96977        43.61210         0.04007
C         40.20738        45.75098         0.26057
C         38.96141        46.41612         0.40668
C         40.19990        48.60375         0.86711
C         38.92909        47.87699         0.58998
C         40.16750        49.95822         1.51557
C         38.85412        50.66089         1.75109
C         40.06032        52.84773         1.26172
C         38.81624        52.19219         1.93992
C         40.16227        54.36829         1.58344
C         38.86063        55.11114         1.30354
C         40.16031        57.19084         1.11613
C         38.88732        56.47461         1.18832
C         40.17141        58.59490         0.91052
C         38.95072        59.40664         0.85922
C         40.14833        61.67857         1.33442
C         38.99705        60.89362         0.82628
C         42.81773        35.83581        -0.34349
C         42.78576        37.25214        -0.28700
C         41.55975        37.95702        -0.22843
C         42.75089        40.11190        -0.26076
C         41.51779        39.37108        -0.21140
C         42.72495        41.53917        -0.27263
C         41.48254        42.20393        -0.23467
C         42.73598        44.45394        -0.30500
C         41.42624        43.66276        -0.33844
C         42.68915        45.83949         0.19266
C         41.47270        46.45403         0.42606
C         42.68675        48.68320         0.56576
C         41.47859        47.82131         1.07119
C         42.67169        50.05631         1.23741
C         41.44542        50.69810         1.48183
C         42.63893        52.92084         1.69847
C         41.36053        52.15605         1.68884
C         42.69774        54.24054         0.93326
C         41.32987        55.01249         0.80839
C         42.62526        57.17791         1.14028
C         41.39154        56.49217         1.10610
C         42.64367        58.58631         0.99089
C         41.42512        59.17355         0.63887
C         42.74918        61.79476         1.33420
C         41.42401        61.37344         0.96201
C         45.29721        33.03756        -0.60578
C         44.07787        33.70874        -0.50886
C         45.27336        35.85289        -0.45050
C         44.03681        35.12715        -0.43327
C         45.26409        37.27319        -0.35837
C         44.02003        37.98619        -0.29168
C         45.21269        40.15591        -0.25255
C         43.99631        39.41560        -0.27546
C         45.21203        41.57295        -0.26023
C         43.96820        42.28592        -0.26234
C         45.21044        44.41441        -0.06363
C         43.99037        43.69237        -0.18254
C         45.19760        45.82909         0.17545
C         43.96409        46.52086         0.38181
C         45.20224        48.59171         0.78534
C         43.97462        47.89275         0.70148
C         45.17736        49.98737         1.30694
C         43.90220        50.72039         1.41720
C         45.20835        52.92293         1.82646
C         43.92410        52.13813         1.82656
C         45.17614        54.38395         1.51124
C         43.92153        55.07242         1.26654
C         45.12204        57.24290         1.08056
C         43.88194        56.45330         1.19273
C         45.13355        58.71412         1.23309
C         43.82181        59.42363         1.47121
C         45.14067        61.55543         1.16642
C         43.86215        60.94512         1.22000
C         46.50343        33.73680        -0.63208
C         47.72880        35.89328        -0.60801
C         46.51683        35.15639        -0.55311
C         47.73292        37.29290        -0.50645
C         46.49662        37.97206        -0.32711
C         47.78440        40.17155        -0.36533
C         46.48052        39.42154        -0.13026
C         47.66411        41.60578        -0.73381
C         46.43065        42.32114        -0.36754
C         47.70029        44.46767        -0.30955
C         46.44677        43.72101        -0.25883
C         47.68235        45.88640        -0.03439
C         46.43743        46.55168         0.21116
C         47.66458        48.75253         0.23911
C         46.41624        47.94764         0.51497
C         47.71695        50.12149         0.85836
C         46.47587        50.75444         1.35424
C         47.65576        52.91102         1.52865
C         46.48192        52.22604         1.52310
C         47.64410        54.36221         1.83056
C         46.37119        55.06529         1.53119
C         47.62325        57.29261         1.76171
C         46.43430        56.50295         1.22248
C         47.60977        58.70341         1.23790
C         46.34629        59.39290         1.20154
C         47.57405        61.50274         0.82528
C         46.35251        60.84651         1.08615
C         48.95848        38.05007        -0.72058
C         50.20630        40.18544        -1.23517
C         48.98785        39.41159        -0.75620
C         50.22003        41.63742        -0.79328
C         48.94867        42.39247        -0.89951
C         50.21300        44.55513        -0.65993
C         48.90519        43.81498        -0.56303
C         50.18368        45.91746        -0.02116
C         48.93012        46.59740         0.09933
C         50.16471        48.67467         0.58274
C         48.94887        47.98221         0.39053
C         50.16052        50.10401         0.74101
C         48.89914        50.80621         0.87752
C         50.19566        52.93456         1.33817
C         48.89823        52.31447         0.91433
C         50.28313        54.35791         1.85879
C         48.95037        55.12064         1.88404
C         50.06883        57.22668         1.13301
C         48.92563        56.56175         1.55145
C         50.04233        58.64640         0.85852
C         48.80583        59.36281         0.93755
C         49.97680        61.45751         0.31764
C         48.78322        60.79590         0.67402
C         51.36251        42.28397        -0.44043
C         52.56513        44.35331         0.10331
C         51.40907        43.72169        -0.24641
C         52.63020        45.79443         0.28254
C         51.38248        46.55754         0.28055
C         52.63513        48.63991         0.84427
C         51.41614        47.96272         0.59712
C         52.60658        50.06732         0.98729
C         51.36528        50.79649         0.89546
C         52.62020        52.97040         1.02773
C         51.36875        52.23808         1.13791
C         52.62005        54.38375         0.92157
C         51.40344        55.12623         1.18515
C         52.54141        57.24627         0.67335
C         51.31717        56.48553         0.98622
C         52.42088        58.63991         0.22350
C         51.22457        59.32116         0.39406
C         52.37981        61.44175        -0.19564
C         51.18841        60.76315         0.13565
C         53.81541        46.40808         0.54017
C         54.99427        48.51689        -0.02401
C         53.96190        47.85989         0.89848
C         55.46120        49.75849         0.28616
C         53.77264        50.85838         1.15545
C         55.00880        52.87161         0.30417
C         53.82764        52.25223         0.84477
C         54.94102        54.26529         0.07016
C         53.79560        55.01117         0.44258
C         54.93125        57.18063        -0.28828
C         53.81550        56.48531         0.39341
C         54.87286        58.57320        -0.48316
C         53.53431        59.26205        -0.57806
C         54.79107        61.42273        -0.71503
C         53.59846        60.76293        -0.44238
C         56.29227        50.72402        -0.36228
C         57.33287        52.87437        -0.57707
C         56.19594        52.12068        -0.17192
C         57.34152        54.27017        -0.72251
C         56.00384        54.95767        -0.76347
C         57.27102        57.13839        -0.94716
C         56.09622        56.45278        -0.58173
C         57.25823        58.56072        -1.03038
C         56.03762        59.27422        -0.84650
C         57.19798        61.38953        -1.28133
C         56.01642        60.71843        -0.97172
C         58.50413        54.98879        -1.00493
C         59.66607        57.11955        -1.48034
C         58.50376        56.41007        -1.17065
C         59.66329        58.54108        -1.59833
C         58.45018        59.26428        -1.37420
C         59.61931        61.36424        -1.83245
C         58.42298        60.68763        -1.49811
C         60.83452        59.26255        -1.93131
C         60.80211        60.65294        -2.04206
O         39.66387        48.60583        -0.47754
O         45.95549        56.84141        -0.10022
O         42.90603        53.82638        -0.51237
O         31.76051        60.52216        -1.34545
O         42.04647        44.20820        -1.56776
O         33.44994        55.89480         1.07741
O         36.66933        54.83950         2.48773
O         54.96761        50.29219         1.53521
O         48.21747        54.77259         3.13832
O         41.88865        52.73875         2.93216
O         45.97725        50.06874         2.56420
O         42.62824        48.95059        -0.79366
O         47.33143        39.90388         0.99200
O         53.58262        57.08460         1.72464
O         39.54499        50.00520         2.86731
O         36.00848        60.48742         1.48771
O         44.60714        52.49877         3.08830
O         41.48199        60.38058        -0.04273
O         37.39808        48.79595         2.36796
O         48.14526        41.95102        -2.07783
O         40.38881        54.61366         2.97577
H         39.78846        54.01681         3.48886
O         39.84273        52.62667        -0.14150
H         40.34380        53.30942        -0.65515
O         44.02817        52.90026        -0.62236
H         43.66564        52.22242        -1.24618
O         43.65406        59.36407         2.94131
H         44.46610        59.73344         3.35063
O         48.79600        52.70981        -0.51678
H         48.27073        52.02256        -0.98309
O         41.65746        47.60880         2.48895
H         41.43807        48.43611         2.96958
O         35.56531        50.65475         2.54629
H         35.81485        49.79860         2.96555
O         50.39314        44.81500        -2.10289
H         50.32847        43.95188        -2.56554
O         50.21072        40.17545        -2.67662
H         49.43217        40.70876        -2.96322
O         50.72933        54.23539         3.24218
H         49.91757        54.16323         3.79669
O         37.38487        57.43207         2.75967
H         37.12625        56.53483         3.08927
O         53.12658        59.01412        -1.98701
H         52.37081        59.61126        -2.17742
O         40.91414        54.98546        -0.59191
H         41.60869        55.42517        -1.12779
O         47.56839        49.05501        -1.21700
H         47.53502        48.19508        -1.69060
O         54.43032        47.84349         2.27029
H         54.74376        48.75241         2.48764
O         55.54617        54.78402        -2.15655
H         54.77419        55.37321        -2.29504
O         47.40070        57.39226         3.20739
H         47.60640        56.50214         3.58849
O         38.83644        52.45573         3.35416
H         39.26620        51.67995         3.78716
H         30.25202        56.48751        -2.80967
H         29.25956        58.69901        -3.64530
H         31.89197        61.95869        -4.39697
H         29.77368        60.79056        -4.62853
H         32.35265        52.29331        -1.30293
H         31.23823        54.42588        -1.95770
H         34.32030        61.96373        -2.97335
H         34.47993        48.20678        -0.52765
H         33.46301        50.27405        -0.83746
H         35.93061        62.34906        -1.33756
H         36.79367        43.76873         0.03083
H         35.60756        45.94861        -0.25942
H         37.93304        62.68861         0.36287
H         39.34910        39.50034        -0.06991
H         38.07922        41.62814        -0.02724
H         39.93425        62.50198         2.03110
H         41.86947        35.27821        -0.33387
H         40.61651        37.39185        -0.20348
H         42.93094        62.85761         1.56542
H         45.30696        31.93999        -0.66499
H         43.13616        33.14173        -0.49119
H         45.17988        62.65233         1.07244
H         47.45552        33.19336        -0.71367
H         48.67889        35.35578        -0.74512
H         47.57271        62.59426         0.68492
H         49.86737        37.48184        -0.97164
H         51.14073        39.67066        -0.89888
H         49.95681        62.54674         0.16204
H         52.30154        41.71844        -0.32999
H         53.47904        43.76825         0.29113
H         52.36310        62.54128        -0.25020
H         54.73525        45.80536         0.58793
H         55.24306        48.04515        -0.98383
H         54.81028        62.52375        -0.71320
H         57.13591        50.36020        -0.96919
H         58.26840        52.32484        -0.76816
H         57.19354        62.48692        -1.36427
H         59.46239        54.45071        -1.07589
H         60.60847        56.57399        -1.64010
H         59.61146        62.45948        -1.92874
H         61.77344        58.71747        -2.10491
H         61.72152        61.19666        -2.30151
