         430
 CSIRO Nanostructure Databank - Neutral Graphene Oxide Data Set
C         28.01744        27.47359        -1.34863
C         27.94257        28.89438        -1.10979
C         26.74785        29.63603        -1.25861
C         27.92961        31.72158        -0.76040
C         26.73677        31.00597        -1.04255
C         27.94390        33.16419        -0.54181
C         26.74918        33.91313        -0.52679
C         27.94216        35.98255         0.00863
C         26.74158        35.27042        -0.24716
C         27.94162        37.39510         0.29890
C         26.73136        38.13607         0.39981
C         27.95534        40.21278         0.78940
C         26.73593        39.48689         0.65808
C         27.96753        41.63879         0.97956
C         26.77417        42.36218         1.29173
C         28.00652        44.46244         1.28492
C         26.79657        43.72136         1.45878
C         28.01655        45.86782         1.44818
C         30.41822        27.37963        -0.80319
C         29.19604        26.77647        -1.26220
C         30.31273        28.79308        -0.36847
C         29.12498        29.58782        -0.76378
C         30.45599        31.71188        -0.69692
C         29.13657        30.98645        -0.64787
C         30.40803        33.15180        -0.27676
C         29.17952        33.85360        -0.28677
C         30.40641        35.97180         0.16767
C         29.17525        35.27253        -0.04080
C         30.39636        37.35804         0.44922
C         29.17700        38.07499         0.51204
C         30.41636        40.22657         0.71722
C         29.18386        39.50470         0.72083
C         30.40523        41.62011         0.63960
C         29.18899        42.34415         0.82470
C         30.40640        44.53316         0.74729
C         29.20979        43.78118         0.94518
C         30.37408        45.93589         0.87072
C         29.17624        46.58833         1.22326
C         32.92616        24.64018        -1.09484
C         31.78975        25.34959        -1.25244
C         32.85250        27.33304        -0.23375
C         31.64064        26.69827        -0.72537
C         32.82176        28.74415         0.17929
C         31.55300        29.52596         0.06014
C         32.86498        31.65429        -0.10936
C         31.62659        30.98017        -0.10397
C         32.87973        33.10918        -0.15760
C         31.64548        33.82596        -0.09388
C         32.89373        35.91921         0.16055
C         31.65660        35.24403         0.09652
C         32.87565        37.43443         0.15585
C         31.68808        37.97115         0.96549
C         32.95296        40.21419         0.49014
C         31.71709        39.53242         1.07346
C         32.93962        41.63682         0.36275
C         31.62513        42.36006         0.13682
C         32.85301        44.50957         0.41423
C         31.66923        43.83413         0.47636
C         32.88171        46.00090         0.64245
C         31.55338        46.71603         0.31919
C         32.93493        48.76602         0.78512
C         31.70797        48.14994         0.76338
C         35.43861        23.11959        -0.83380
C         35.39155        24.49487        -0.50921
C         34.05211        25.14007        -0.21778
C         35.32882        27.35857        -0.10577
C         34.07315        26.65247        -0.19640
C         35.36700        28.76339        -0.10844
C         34.14091        29.52029         0.15640
C         35.31794        31.63740        -0.61247
C         34.09075        30.95766        -0.07963
C         35.36289        33.10563        -0.25783
C         34.11994        33.80042        -0.11158
C         35.36457        35.95084        -0.04832
C         34.11136        35.22311         0.05034
C         35.36646        37.33216         0.00612
C         34.20223        38.04709         0.63701
C         35.37304        40.23216         0.08770
C         34.16144        39.53415         0.36923
C         35.38211        41.65785         0.09897
C         34.14328        42.33995         0.24280
C         35.37490        44.55181        -0.03766
C         34.19058        43.80975         0.55561
C         35.34262        45.91732        -0.07477
C         34.05161        46.69944        -0.07898
C         35.42458        48.77370         0.44869
C         34.15551        48.11345         0.44663
C         35.57444        50.11180         0.90285
C         37.87566        23.15430        -0.90860
C         36.63856        22.47453        -1.06059
C         37.85148        24.52110        -0.50194
C         36.59159        25.19876        -0.33921
C         37.78171        27.33582         0.04316
C         36.57785        26.63665        -0.11302
C         37.83339        28.75311        -0.03294
C         36.60100        29.49394        -0.20079
C         37.84286        31.63397        -0.43602
C         36.58570        30.88960        -0.30032
C         37.85673        33.10016        -0.27922
C         36.59423        33.80057        -0.23679
C         37.84314        35.93495        -0.16341
C         36.60745        35.22741        -0.19208
C         37.85310        37.35150        -0.21094
C         36.56388        38.07386        -0.48961
C         37.79576        40.22053        -0.23453
C         36.58955        39.52473        -0.11201
C         37.78716        41.64290        -0.32334
C         36.60490        42.36480        -0.17165
C         37.74597        44.47835        -0.76534
C         36.60308        43.82092        -0.33704
C         37.77257        45.94999        -0.91211
C         36.50971        46.70224        -0.52429
C         37.80839        48.78818        -0.17807
C         36.58152        48.10968        -0.06763
C         37.92372        50.13933         0.26667
C         36.79891        50.76382         0.82386
C         40.40948        20.46753        -1.61337
C         39.21041        21.12576        -1.52474
C         40.34327        23.17247        -0.78283
C         39.13790        22.48408        -1.08149
C         40.30675        24.54077        -0.34929
C         39.07668        25.19831        -0.23009
C         40.30372        27.33884         0.30346
C         39.01918        26.55953         0.41465
C         40.26870        28.74786         0.38678
C         39.07138        29.43979         0.11511
C         40.35410        31.64927         0.10049
C         39.14122        30.87551        -0.21127
C         40.33173        33.05844         0.01006
C         39.07581        33.77695        -0.14311
C         40.29285        35.92861         0.08981
C         39.08899        35.21918        -0.06882
C         40.29319        37.37277         0.08501
C         39.05568        38.07880        -0.13672
C         40.27976        40.22586        -0.17024
C         39.06130        39.50630        -0.23663
C         40.30541        41.63952        -0.39466
C         39.02452        42.22966        -0.95600
C         40.31169        44.51361        -0.99140
C         39.00939        43.75102        -1.05274
C         40.28798        46.00430        -0.96136
C         39.06152        46.69397        -0.92993
C         39.91680        48.99351        -1.33925
C         38.95009        48.12484        -0.80017
C         40.08987        50.32462        -0.92547
C         39.29783        50.78887         0.27012
C         40.41578        53.00356        -0.04611
C         39.35624        52.29192         0.41574
C         42.85763        20.42233        -1.23666
C         41.62808        21.11722        -1.24678
C         42.80716        23.13992        -0.47034
C         41.59569        22.48493        -0.85101
C         42.77783        24.54596        -0.13186
C         41.55546        25.23418        -0.06766
C         42.77781        27.37375         0.28651
C         41.53142        26.64748         0.20651
C         42.78149        28.77520         0.47245
C         41.50429        29.49765         0.81402
C         42.74041        31.66170         0.61398
C         41.54094        30.96433         0.44735
C         42.76788        33.07731         0.45584
C         41.54900        33.77729         0.20227
C         42.74476        35.90811         0.41571
C         41.54528        35.21078         0.22092
C         42.70041        37.37226         0.78391
C         41.46879        38.10111         0.30404
C         42.68995        40.27222         0.30422
C         41.49709        39.52739         0.15838
C         42.72050        41.67515         0.07725
C         41.50070        42.36749        -0.30736
C         42.72664        44.51136        -0.34162
C         41.55001        43.79559        -0.56128
C         42.77501        45.94111        -0.59588
C         41.58986        46.62737        -1.05057
C         42.95465        48.66039        -1.42792
C         41.77135        47.90459        -1.60819
C         43.01932        50.04661        -1.73015
C         41.14715        51.12341        -1.39164
C         42.74051        52.98315        -1.03569
C         41.45483        52.38660        -0.85109
C         44.01600        21.05260        -0.80546
C         45.24610        23.03685         0.18397
C         44.01334        22.40882        -0.42881
C         45.24366        24.54773         0.14581
C         44.02739        25.24391         0.09111
C         45.23034        27.37081         0.49566
C         44.01268        26.66821         0.24960
C         45.20049        28.77757         0.71094
C         43.99125        29.47713         0.64688
C         45.25212        31.65824         0.88856
C         43.95237        30.91751         1.12301
C         45.24551        33.08917         0.77844
C         43.99877        33.80160         0.59813
C         45.21838        35.96695         0.71100
C         43.98773        35.21930         0.55806
C         45.22088        37.38304         0.66379
C         43.94883        38.11722         0.30837
C         45.21356        40.27569         0.53021
C         43.92265        39.56151         0.81726
C         45.19489        41.68367         0.40081
C         43.94746        42.38911         0.18638
C         45.14913        44.53597         0.19182
C         43.96810        43.82601         0.02229
C         45.13802        46.03768         0.28171
C         43.97549        46.65988        -0.44348
C         45.27183        48.79137        -0.61345
C         44.06458        48.03541        -0.78133
C         45.28281        50.18912        -0.87529
C         44.07536        50.86601        -1.30477
C         43.92456        52.30081        -1.25826
C         47.71047        23.17268        -0.11964
C         46.54973        22.47766        -0.31244
C         47.71081        24.52361         0.32948
C         46.48046        25.24447         0.35495
C         47.69809        27.40682         0.73413
C         46.46774        26.66381         0.54664
C         47.68013        28.74359         1.04646
C         46.39032        29.47691         1.31767
C         47.70148        31.65681         0.97032
C         46.45059        30.95845         0.98083
C         47.70147        33.08731         0.95430
C         46.45960        33.80127         0.86604
C         47.64109        35.95607         1.12840
C         46.46270        35.25496         0.87836
C         47.62224        37.41690         1.21841
C         46.39672        38.12684         0.84000
C         47.67161        40.26706         0.60788
C         46.42160        39.56131         0.69712
C         47.65185        41.69209         0.44063
C         46.42847        42.38527         0.43123
C         47.68016        44.57568         0.25277
C         46.40842        43.86663         0.67255
C         47.67727        45.96689         0.12347
C         46.46717        46.70856        -0.00740
C         47.74064        48.82010        -0.33935
C         46.48857        48.09346        -0.27073
C         47.69570        50.23608        -0.53838
C         46.51497        50.89899        -0.75087
C         50.26795        24.54736         0.43853
C         48.96413        25.21133         0.82999
C         50.25993        27.35694         0.78056
C         48.97584        26.67289         0.37140
C         50.25048        28.77293         1.17372
C         48.93135        29.50281         1.28723
C         50.16917        31.66150         1.01160
C         48.94203        30.96585         1.08330
C         50.15984        33.09375         0.96516
C         48.93435        33.78395         1.02908
C         50.09216        35.99218         0.64094
C         48.95486        35.25383         1.38309
C         50.28978        37.43555         1.16318
C         48.96596        38.20651         1.17145
C         50.11416        40.24760         0.28017
C         48.91315        39.58391         0.66868
C         50.10067        41.65533         0.05904
C         48.89299        42.40749         0.24800
C         50.12351        44.49754        -0.21734
C         48.89789        43.82023         0.13006
C         50.17056        45.91573        -0.27568
C         48.99019        46.70401         0.23611
C         50.21515        48.76133        -0.48333
C         48.96191        48.13025        -0.24566
C         51.41198        25.25141         0.34922
C         52.71516        27.40249         0.76209
C         51.45212        26.68794         0.63255
C         52.70226        28.82975         0.82554
C         51.47776        29.54994         0.95504
C         52.66367        31.68943         0.83925
C         51.43815        30.95510         0.96357
C         52.64586        33.11255         0.75695
C         51.40763        33.82863         0.82468
C         52.59288        35.94101         0.39363
C         51.40138        35.22954         0.66894
C         52.56696        37.36955         0.15790
C         51.39029        38.11559         0.37851
C         52.50943        40.17023        -0.37017
C         51.33911        39.50288         0.11058
C         52.49069        41.57890        -0.58551
C         51.30022        42.32408        -0.33967
C         52.49487        44.42112        -0.89856
C         51.30088        43.74685        -0.49211
C         52.52428        45.84022        -0.99764
C         51.35522        46.59025        -0.62859
C         51.36838        48.03138        -0.63901
C         55.15412        27.43484         0.76222
C         53.95882        26.73273         0.75015
C         55.16366        28.85053         0.75628
C         53.92711        29.55779         0.78915
C         55.13942        31.69721         0.66234
C         53.90851        30.98592         0.77365
C         55.11250        33.12414         0.50163
C         53.86680        33.82328         0.53642
C         55.03320        35.92405        -0.03576
C         53.83446        35.23368         0.30892
C         54.97945        37.31699        -0.40401
C         53.75386        38.03408        -0.29168
C         54.89675        40.09712        -1.03316
C         53.71982        39.43460        -0.57089
C         54.86953        41.51588        -1.28885
C         53.67757        42.24774        -1.03320
C         54.84444        44.33374        -1.64566
C         53.66999        43.66586        -1.20012
C         54.83471        45.75043        -1.78119
C         53.71524        46.47817        -1.45574
C         56.38126        29.59077         0.72033
C         56.36381        30.96375         0.66303
C         56.29965        33.86288         0.25827
C         56.25844        35.21196        -0.02142
C         56.12624        37.99805        -0.88055
C         56.08175        39.33968        -1.20050
C         56.01866        42.21010        -1.76271
C         56.00781        43.57502        -1.94229
O         30.58105        29.02662         1.07255
O         38.65508        31.15307        -1.58209
O         33.51232        29.05126         1.41689
O         39.71063        44.11558        -2.29887
O         48.25897        38.00152         2.42177
O         41.95998        50.64328        -2.44152
O         36.83741        46.47329        -1.94362
O         40.73027        48.46668        -2.36287
O         43.80559        30.78448         2.55760
O         49.63500        29.04957         2.49578
O         45.17667        22.66947         1.61942
H         45.87126        23.18615         2.08135
O         41.48071        29.46424         2.28104
H         42.32031        29.94878         2.58505
O         46.38051        43.99889         2.14613
H         46.04422        44.90847         2.34126
O         33.78119        46.79503        -1.52066
H         34.63061        46.99486        -1.97500
O         39.98677        50.23351         1.45868
H         39.51508        50.56897         2.25034
O         33.09173        46.19624         2.06600
H         33.76084        45.52752         2.35603
O         38.95373        41.71297        -2.32723
H         39.41813        42.37811        -2.89065
O         38.86268        26.29907         1.86174
H         39.72390        25.97393         2.20097
O         43.89654        38.19700        -1.13785
H         43.88279        37.28397        -1.49434
O         30.75991        31.75413        -2.16427
H         30.11402        32.36910        -2.57461
O         31.80766        37.39803         2.29792
H         31.35067        38.00536         2.92250
O         49.21214        46.82026         1.70375
H         50.08870        47.24445         1.82553
O         46.13535        29.42466         2.75539
H         45.26040        29.91662         2.89567
O         31.24574        46.74193        -1.09839
H         32.04138        47.06540        -1.58436
O         32.66685        37.85502        -1.21126
H         33.44451        37.57802        -1.74152
O         33.72141        24.71675         1.15020
H         32.95035        25.24713         1.44486
O         44.90986        46.32940         1.72914
H         44.96965        47.30353         1.83839
O         50.79554        37.40729         2.50851
H         50.05287        37.11939         3.09068
O         49.23137        35.31064         2.81186
H         48.51244        34.83179         3.27570
O         31.82818        39.81497         2.51742
H         31.77126        40.78719         2.63383
O         48.99249        26.61949        -1.08957
H         49.03033        27.53638        -1.43234
O         48.88731        25.21089         2.28129
H         49.00874        24.29186         2.59679
O         34.39709        37.85733         2.06400
H         33.51244        37.67469         2.47468
O         42.67830        37.36702         2.23689
H         41.89093        36.85923         2.52302
O         31.44374        42.32391        -1.32439
H         32.06727        42.96819        -1.72215
O         34.47998        43.85153         2.01873
H         33.92255        43.16977         2.45168
O         49.68754        36.12584        -0.74601
H         49.70691        35.23696        -1.15864
O         36.41594        38.08181        -1.97306
H         37.16983        38.59839        -2.33355
O         43.84068        39.55138         2.26876
H         43.95336        40.47236         2.58380
O         35.19971        31.58830        -2.09678
H         36.05307        31.90455        -2.46593
H         27.10094        26.94981        -1.65769
H         25.81676        29.11535        -1.52491
H         25.78255        31.54203        -1.13428
H         25.78838        33.41786        -0.72024
H         25.77636        35.79309        -0.23494
H         25.76558        37.63068         0.26885
H         25.77584        40.01673         0.71341
H         25.82903        41.82102         1.43225
H         25.87695        44.26355         1.72235
H         27.08460        46.38442         1.71937
H         29.18965        25.70620        -1.51136
H         29.15233        47.68345         1.30608
H         32.98665        23.63026        -1.52485
H         30.96364        24.91552        -1.83337
H         32.97072        49.82616         1.07853
H         30.81430        48.75302         0.98197
H         34.50738        22.54221        -0.90737
H         34.71552        50.64814         1.32607
H         36.62192        21.40863        -1.32310
H         36.87072        51.79660         1.19330
H         40.44429        19.42006        -1.94611
H         38.29083        20.59166        -1.79836
H         40.50730        54.07482         0.19175
H         38.60802        52.79550         1.04575
H         42.88213        19.36342        -1.53140
H         42.82368        54.05910        -0.81046
H         44.94247        20.46590        -0.74802
H         44.84369        52.90332        -1.20006
H         48.66517        22.68107        -0.35612
H         46.60281        21.44328        -0.67805
H         48.62684        50.81716        -0.51072
H         46.53439        51.98642        -0.90123
H         50.30333        23.45517         0.31229
H         50.26555        49.85051        -0.61991
H         52.34894        24.73062         0.10539
H         52.30391        48.56594        -0.84588
H         56.11028        26.89212         0.75588
H         53.98958        25.63495         0.73711
H         55.74188        46.25904        -2.13801
H         53.74630        47.57007        -1.56442
H         57.33771        29.04844         0.72058
H         57.32103        31.49963         0.61869
H         57.27381        33.35724         0.25489
H         57.20185        35.73159        -0.23286
H         57.07514        37.46128        -1.00829
H         56.99791        39.81907        -1.56839
H         56.93996        41.65768        -1.98883
H         56.90797        44.09308        -2.30309
