         276
 CSIRO Nanostructure Databank - Neutral Graphene Oxide Data Set
C        -11.23314         0.60906        -0.25701
C         -9.91250         1.31778        -0.04721
C         -8.83056         0.69435        -0.97542
C         -7.49272         1.37119        -0.63733
C         -6.23806         0.65861        -1.12116
C         -4.95740         1.40031        -0.76410
C         -3.76987         0.73915        -0.15882
C         -2.47893         1.45862         0.01876
C         -1.25319         0.69727         0.58338
C          0.11892         1.37999         0.20610
C          1.22202         0.80592         1.09993
C          2.60826         1.48997         0.80668
C          3.75301         0.78310         1.51918
C          5.11144         1.56951         1.60266
C          6.21078         0.71396         0.92786
C          7.46741         1.46101         0.48935
C          8.85177         0.84107         0.29027
C          9.45678         1.39747        -1.03441
C         10.78760         0.72996        -1.28960
C         -9.94347         2.81882        -0.18949
C         -8.83551         3.61542        -0.83867
C         -7.47824         2.86827        -0.61679
C         -6.17454         3.57654        -1.00058
C         -4.92318         2.75045        -0.85250
C         -3.62455         3.52645        -1.06995
C         -2.33236         2.84426        -0.52650
C         -1.12670         3.55917         0.01600
C          0.06136         2.84468         0.69561
C          1.33852         3.67589         0.59498
C          2.55379         2.99838         1.22619
C          3.86431         3.69939         0.93329
C          5.03084         3.01050         1.03710
C          6.34231         3.71253         0.99837
C          7.48890         2.87046         0.79885
C          9.04679         3.84849        -0.31724
C          9.50908         2.91529        -1.18990
C         -8.86365         5.11371        -0.47998
C         -7.89602         5.78617         0.19310
C         -5.96368         4.75731        -0.07845
C         -4.94033         5.62532        -0.21251
C         -3.67464         5.04602        -0.74835
C         -2.42516         5.75864        -0.35523
C         -1.20233         5.04066         0.10737
C          0.07187         5.80020         0.18536
C          1.33136         5.01812         0.36337
C          2.51895         5.86390         0.62969
C          3.84165         5.18782         0.90083
C          5.12998         5.93431         0.65498
C          6.46960         5.22494         0.68450
C          7.60659         5.88876        -0.05638
C          8.72080         5.24943        -0.55661
C         -7.56740         7.20899         0.25822
C         -6.30571         7.73786         0.42270
C         -4.97557         6.96249         0.54894
C         -3.78731         7.80272         0.08343
C         -2.47183         7.15815         0.12040
C         -1.28669         7.93256        -0.28621
C          0.03908         7.21026        -0.35836
C          1.36063         7.95055        -0.52454
C          2.48448         7.31924         0.28943
C          3.77701         8.01638        -0.01183
C          5.06941         7.28910         0.02904
C          6.33140         8.04208        -0.15253
C          7.49378         7.32710        -0.28057
C         -6.20689         9.18326         0.63479
C         -5.06036         9.90898         0.59683
C         -3.79670         9.30654         0.12585
C         -2.49202        10.02606         0.12830
C         -1.31593         9.40692        -0.15812
C         -0.03966        10.19769        -0.44040
C          1.28689         9.45513        -0.25800
C          2.43474        10.15196        -0.09615
C          3.78441         9.51726         0.20350
C          5.01763        10.12731        -0.42938
C          6.19443         9.45440        -0.49081
C        -11.23454        -0.74175        -0.16179
C         -9.99500        -1.50142        -0.13662
C         -8.87893        -0.92973        -1.01443
C         -7.53377        -1.62892        -0.78031
C         -6.25062        -0.83364        -0.71430
C         -5.11610        -1.39406         0.10101
C         -3.80514        -0.70326         0.22569
C         -2.53492        -1.48991         0.32851
C         -1.18975        -0.78448         0.20183
C         -0.10183        -1.48433         1.06629
C          1.25713        -0.73486         1.05464
C          2.43428        -1.42672         1.12312
C          3.72413        -0.72016         1.50204
C          5.04311        -1.48728         1.52803
C          6.40773        -0.68852         1.51665
C          7.62695        -1.45222         0.88779
C          8.78263        -0.69002         0.27410
C          9.75909        -1.38130        -0.61372
C         10.86655        -0.61332        -1.14826
C         -9.96913        -2.79716         0.36429
C         -8.82328        -3.63782         0.30812
C         -7.58282        -3.09906        -0.34005
C         -6.35486        -3.61663         0.35406
C         -5.08450        -2.87183         0.32637
C         -3.83155        -3.53737        -0.20425
C         -2.54019        -2.84792         0.22048
C         -1.28682        -3.62745         0.32612
C         -0.08253        -2.94093         0.65425
C          1.20090        -3.64960         0.66147
C          2.37320        -2.94891         1.35846
C          3.69861        -3.71245         1.13816
C          5.01756        -2.96086         1.23387
C          6.26093        -3.69590         0.75432
C          7.52729        -2.91845         0.53151
C          8.54931        -3.50639        -0.37727
C          9.65590        -2.73668        -0.83284
C         -8.78908        -5.01564         0.63040
C         -7.61984        -5.79784         0.47496
C         -6.36831        -5.08361         0.03386
C         -5.06394        -5.76910         0.36883
C         -3.80373        -5.01404         0.11629
C         -2.55825        -5.71410        -0.36819
C         -1.32276        -5.02652         0.15977
C         -0.16507        -5.90218         0.55116
C          1.16462        -5.14783         0.50542
C          2.41991        -5.95209         0.64160
C          3.69643        -5.15856         0.71902
C          4.96273        -5.86752         0.24888
C          6.01897        -4.83739        -0.23468
C          7.28795        -5.60675        -0.57892
C          8.46964        -4.86033        -0.72658
C         -7.56432        -7.22395         0.42212
C         -6.37988        -7.92896         0.21483
C         -5.04046        -7.28645         0.48591
C         -3.82884        -7.89120        -0.19735
C         -2.64562        -7.22684        -0.26482
C         -1.38444        -7.95067        -0.56923
C         -0.11090        -7.22412        -0.24376
C          1.07725        -8.12763         0.06576
C          2.41434        -7.35896         0.14983
C          3.47118        -7.81084        -0.87364
C          4.82401        -6.97352        -0.85667
C          6.10250        -7.77490        -0.72537
C          7.27961        -7.01261        -0.74080
C         -6.32105        -9.36539         0.07392
C         -5.16783       -10.02328        -0.22256
C         -3.91953        -9.31834        -0.69729
C         -2.61929       -10.06762        -0.50238
C         -1.41934        -9.44647        -0.54596
C         -0.12276       -10.27046        -0.44688
C          1.10113        -9.41349        -0.84043
C          2.46194       -10.06990        -0.66222
C          3.61403        -9.32721        -0.71717
C          4.92014        -9.92709        -0.70167
C          6.08970        -9.19466        -0.71467
O         -6.57796        -1.61134        -1.89396
O          1.41178        -4.28404        -0.66182
O          2.65710        -7.08062         1.56743
O          6.42241         0.98121        -0.45710
O          2.19562         6.92162         1.63216
O          8.70992         3.44817         1.01831
O         -0.78128         5.60830         1.37757
O         -0.57388        -7.25070        -1.60854
O         -7.35516         2.09791         0.61836
O          6.72335         4.74632         2.00769
O          3.46642         0.07204         2.72754
O          4.31799         7.44817        -1.24157
O         -0.72888         7.37300        -1.58823
O         -7.49882        -3.88897        -1.62721
O         -1.20872         3.12829        -1.40219
O         -0.03123         2.59676         2.14141
O         -6.94633         4.99019         0.88410
O         -4.01561         8.56988        -1.14771
O         -3.49110         1.54437         1.06934
O         -4.26590        -5.21922         1.47421
O          8.85182        -1.21115         1.64354
O          5.45006         1.76452         2.93242
O          5.10326        -2.46453         2.60341
O         -2.87760         5.72846        -1.77464
O          7.31720        -3.81238         1.70709
O          3.82051        -4.78084         2.13500
O          0.79110         1.32855         2.40371
O         -5.77268        -3.19277         1.58899
O          4.53297         5.87368         1.98358
O         -6.52717        -4.99024        -1.43918
O         -4.77041        -0.75541         1.35829
O          2.85992        -7.55388        -2.11749
O          0.79605        -8.65086         1.40100
H          1.56626        -8.41852         1.97748
O         -9.59358         1.01834         1.34187
H         -8.79713         1.54926         1.58805
O         -1.42925         0.69739         1.99513
H         -2.38777         0.59503         2.19397
O         -9.14652         1.11272        -2.31303
H         -8.30183         1.18572        -2.81727
O         -3.52933         3.44138        -2.51937
H         -2.91629         4.16869        -2.79608
O         -4.77151         6.69232         1.95203
H         -5.49210         6.09168         2.24427
O          0.90743        -9.18909        -2.23857
H          1.62281        -8.54107        -2.52354
O         -6.28418         4.06319        -2.36127
H         -5.39811         3.94830        -2.78940
O          1.75240         7.79673        -1.90730
H          0.92486         7.82492        -2.44253
O          8.54996         0.94367        -2.07463
H          8.95512         1.12811        -2.94720
O         -2.53577        -5.49808        -1.82926
H         -1.72812        -5.97862        -2.15581
O         -0.39855        -6.27819         1.93685
H         -0.04447        -7.19326         2.07297
O         -0.03079        11.41393         0.30638
H          0.01150        11.19210         1.25903
O          5.50384        -6.55431         1.39005
H          5.24442        -6.04475         2.19418
O          2.04947        -3.05293         2.76845
H          2.86999        -2.86344         3.27850
O         -3.94526        -3.30325        -1.62891
H         -3.39711        -3.98478        -2.09449
O         -0.52088        -1.53750         2.44871
H          0.20917        -1.96335         2.95584
O         -0.83837        -0.90661        -1.19031
H         -0.69369        -1.85660        -1.39139
O          5.53507        -4.07923        -1.36771
H          5.26978        -4.74023        -2.06513
O          2.43620         3.13082         2.65297
H          3.23894         2.74246         3.07075
O          2.98248         1.41919        -0.58078
H          2.16354         1.41367        -1.13840
O         -6.33565         0.74019        -2.57033
H         -6.36785        -0.19064        -2.91273
O          4.94293        -6.39046        -2.16966
H          4.11098        -6.71832        -2.65017
O         -0.19458       -11.38936        -1.32590
H          0.02807       -11.03850        -2.21864
O         -4.83377        -7.62942         1.89216
H         -4.33063        -6.88040         2.29532
O         -9.28769        -1.32363        -2.33624
H         -9.68701        -0.52508        -2.76363
O         -9.02246         3.63255        -2.28266
H         -8.19206         3.98793        -2.67847
O          3.96568         9.67441         1.64490
H          3.94955        10.63085         1.85652
O          9.70987         1.20968         1.36723
H          9.57455         0.55075         2.08878
O          0.44924         1.21347        -1.16358
H         -0.19475         1.72312        -1.71413
O         -4.11027        -9.20359        -2.15161
H         -3.26574        -8.88503        -2.53672
O          6.76554        -0.47541         2.87780
H          6.20829         0.28404         3.23480
H         11.77356        -1.15838        -1.45143
H         11.63333         1.31271        -1.68162
H          9.76230         3.25921        -2.20618
H          9.41059         5.83691        -1.18343
H          8.41490         7.84904        -0.58360
H          7.09417         9.97191        -0.85932
H          4.98492        11.18564        -0.73246
H          2.37166        11.24894         0.01231
H         -0.09112        10.49430        -1.52630
H         -2.50178        11.11848         0.27363
H         -5.07947        10.98094         0.84450
H         -7.14579         9.70256         0.88529
H         -8.40231         7.92118         0.14481
H         -9.62273         5.68981        -1.03058
H        -10.59110         3.34748         0.52917
H        -12.16956         1.18162        -0.31423
H        -12.18480        -1.29733        -0.10938
H        -10.88329        -3.19316         0.83450
H         -9.71648        -5.50464         0.96666
H         -8.51225        -7.78490         0.45754
H         -7.24546        -9.94049         0.24382
H         -5.17900       -11.12239        -0.28881
H         -2.65226       -11.16757        -0.45390
H         -0.02485       -10.66317         0.59751
H          2.51911       -11.16662        -0.55720
H          4.98011       -11.02719        -0.71344
H          7.05398        -9.72604        -0.70318
H          8.25143        -7.52546        -0.83115
H          9.34895        -5.33543        -1.18971
H         10.40890        -3.23763        -1.46025
