         260
 CSIRO Nanostructure Databank - Neutral Graphene Oxide Data Set
C         30.81280        31.49979         0.62732
C         30.64435        32.72193         0.68299
C         30.62496        36.04677         1.26472
C         30.50959        37.27453         1.43728
C         30.43835        40.47051         0.56431
C         30.34779        41.68736         0.31403
C         32.86911        29.11240        -1.40815
C         32.04135        29.53349        -0.58461
C         32.82774        31.84034        -0.78048
C         31.94823        30.60480         0.40251
C         32.88616        33.14649        -0.06700
C         31.50472        33.85388         0.11729
C         32.83296        35.43991         1.51274
C         31.59953        35.02482         1.05596
C         32.82046        37.67655         1.52663
C         31.54538        38.27847         1.29842
C         32.78423        40.25735         0.51122
C         31.52685        39.56818         0.75981
C         32.83303        41.69633         0.32268
C         31.53742        42.51647         0.74432
C         32.86236        44.45370         0.16084
C         31.76199        43.88251         0.16036
C         35.52619        27.56440        -1.33498
C         35.42779        29.01478        -1.51460
C         34.15119        29.79202        -1.70860
C         35.42553        31.86535        -0.83956
C         34.13653        31.24737        -1.26120
C         35.36523        32.84787         0.34040
C         34.07730        33.64904         0.39598
C         35.23455        35.76892         1.09275
C         34.11065        34.95196         1.05776
C         35.22300        37.24744         0.72995
C         33.97634        38.11085         0.87739
C         35.25009        40.12365         0.17707
C         33.96641        39.46542         0.45481
C         35.26490        41.58486         0.02076
C         34.05545        42.33486         0.00268
C         34.59836        44.34263        -1.63702
C         34.16752        43.88454        -0.21661
C         35.22495        45.71332        -1.61622
C         37.74492        27.49933        -0.35972
C         36.49114        26.98573        -0.81788
C         37.81215        28.89177        -0.47046
C         36.66283        29.67990        -0.95057
C         37.97987        31.78537        -0.81677
C         36.66652        31.04958        -0.83586
C         37.88470        33.30414        -0.40178
C         36.67663        33.74341         0.50663
C         37.78534        35.99991         0.77683
C         36.48398        35.28172         0.38368
C         37.74028        37.30944         1.14979
C         36.41621        38.04030         1.30409
C         37.71117        40.24380         0.95411
C         36.51576        39.41025         0.60205
C         37.75378        41.61229         0.39782
C         36.57337        42.19041        -0.04562
C         37.77176        44.38091        -0.44704
C         36.62138        43.49977        -0.65248
C         37.62057        45.86752        -0.66510
C         36.33353        46.13336        -1.31275
C         40.12769        24.66803         0.12035
C         39.07789        25.28147        -0.15270
C         40.15587        27.34486         0.59644
C         38.81690        26.67227         0.21790
C         40.19748        28.85011         0.49229
C         39.00608        29.61646        -0.02667
C         40.35617        31.72389        -0.07788
C         39.07371        30.98273        -0.14871
C         40.29234        33.16620         0.28006
C         39.13425        33.89917         0.21222
C         40.24614        35.95494         1.03543
C         39.07956        35.29102         0.68714
C         40.28662        37.36028         1.49449
C         38.94287        38.04721         1.73658
C         40.28392        40.35285         1.33909
C         38.96782        39.57235         1.42887
C         40.25721        41.80090         0.92302
C         39.06756        42.27949         0.07451
C         40.23082        44.55653        -0.29615
C         38.95953        43.80236        -0.07007
C         40.25224        46.07681        -0.16828
C         38.84098        46.72519        -0.59359
C         40.10632        48.45147        -1.81016
C         39.08154        47.97074        -1.31148
C         42.70782        24.57581         0.13933
C         41.44716        25.18093         0.32244
C         42.68017        27.35865         0.69153
C         41.44886        26.58226         0.62064
C         42.79213        28.68544         0.31687
C         41.55097        29.49886         0.40683
C         42.91260        31.60175         0.44857
C         41.62143        30.94803         0.07232
C         42.85727        33.08501         0.55472
C         41.53748        33.78151         0.77636
C         42.81157        36.03102         0.85480
C         41.54982        35.26042         1.03915
C         42.82763        37.38181         0.99734
C         41.59156        38.12058         1.38865
C         42.87921        40.31594         0.91110
C         41.53309        39.56660         0.88757
C         42.80747        41.72778         0.33681
C         41.58159        42.59874         0.77355
C         42.80548        44.60212        -0.34376
C         41.53420        43.83266        -0.13829
C         42.76879        45.87105        -0.86426
C         41.52908        46.72270        -0.77433
C         42.72467        48.34622        -2.22457
C         41.49068        48.12383        -1.47746
C         43.82120        25.01026        -0.31462
C         45.35346        27.06258        -0.79280
C         44.47454        26.18609         0.00248
C         45.22475        28.61069        -0.79857
C         44.13875        29.33372         0.02740
C         45.24368        31.64160        -0.60515
C         44.16801        30.84029         0.06608
C         45.22343        33.14737        -0.40880
C         43.97464        33.87903        -0.02911
C         45.35166        35.91571         0.67233
C         43.98931        35.40861         0.11275
C         45.30956        37.42183         0.44174
C         44.14284        38.14211         1.12234
C         45.34628        40.30856         0.58054
C         44.06618        39.62715         0.79857
C         45.38583        41.79594         0.88140
C         44.08672        42.54266         0.59024
C         45.38394        44.51154        -0.42946
C         44.10263        43.93437        -0.01808
C         45.33633        45.70520        -1.31633
C         44.01041        46.38263        -1.56025
C         43.79510        47.76108        -2.01406
C         47.71303        27.34255        -1.33096
C         46.71528        26.64671        -1.14007
C         47.80090        28.77477        -1.62730
C         46.46007        29.43692        -1.25677
C         47.77195        31.76321        -1.13523
C         46.46428        30.95965        -1.13163
C         47.77846        33.20637        -0.66957
C         46.49668        33.90486        -0.33365
C         47.85542        35.95160        -0.23542
C         46.53338        35.21514         0.01445
C         47.85939        37.41976         0.18794
C         46.57381        38.17306         0.13452
C         47.82484        40.34577         0.29567
C         46.52853        39.63570         0.38676
C         47.86955        41.81665         0.60534
C         46.60968        42.54081         0.38245
C         47.91874        44.55758        -0.27410
C         46.61034        43.87068        -0.06057
C         47.64904        45.83264        -0.86467
C         46.66337        46.33510        -1.42360
C         50.29266        28.78831        -1.06473
C         49.09914        29.51461        -1.53824
C         50.27667        31.76945        -0.60155
C         49.09266        30.99512        -1.17616
C         49.86568        32.63116         0.60422
C         48.97110        33.76024         0.07837
C         50.08270        35.83980         1.03727
C         49.00120        35.09910         0.37364
C         50.29100        37.27395         0.62514
C         49.04792        38.06046         0.37783
C         50.34401        40.29901         0.73953
C         49.10648        39.55192         0.31076
C         50.42310        41.71495         0.18657
C         49.18033        42.53692         0.44659
C         50.46848        44.41444        -0.22263
C         49.12367        43.96976         0.00936
C         51.31734        29.37020        -0.64197
C         52.32455        31.31853         0.80573
C         51.64747        30.55734        -0.00997
C         52.17759        32.38034         1.59188
C         50.98888        33.03424         1.56467
C         52.00711        36.04658         2.43603
C         50.87679        35.25500         2.01114
C         52.24179        37.20471         2.05582
C         51.55273        38.05045         1.09080
C         52.75593        40.37313         0.80654
C         51.58523        39.54294         1.14425
C         52.83687        41.57022         0.50183
C         51.77934        42.41311        -0.06520
C         51.57589        43.86829        -0.05401
O         41.53257        34.28605         2.15223
O         48.64198        42.25132         1.77746
O         40.83179        29.38314         1.69651
O         32.89151        36.55991         2.36457
O         39.15808        26.93797         1.59339
O         51.46025        37.51024        -0.23614
O         44.69394        30.04106         1.18016
O         36.16388        39.44345        -0.79239
O         46.87005        29.13769        -2.63721
O         35.88316        43.53901        -1.80050
O         45.61255        37.77983        -0.91203
O         50.62595        34.00057         2.52299
O         34.98055        29.48771        -2.82189
O         38.04590        35.21579        -1.76273
O         37.91806        46.68278         0.50287
O         43.90438        26.79142         1.14251
O         41.13880        37.68282         2.69743
O         41.31611        39.42908        -0.50934
O         50.71838        40.14150         2.14274
O         36.12021        35.76286        -0.97244
O         45.42306        31.42064        -2.03814
O         48.10221        35.94890        -1.60487
O         44.56156        45.46876        -2.52805
O         35.25147        32.02294         1.47634
O         38.05366        40.22222         2.37612
O         47.87605        32.86342        -2.08488
O         48.56386        40.06468        -0.94519
O         35.45218        37.07442        -0.74639
O         40.18123        41.42412         2.33050
O         44.24540        33.59080        -1.43158
O         41.20554        31.36266        -1.26005
O         41.75275        48.01498        -0.07452
O         38.40322        31.79871        -2.21987
O         40.84852        43.87972        -1.43605
O         44.68534        27.77370        -1.86419
O         44.04719        43.67700         1.47298
O         49.35597        30.51450        -2.54192
O         51.03610        41.79306        -1.13127
O         34.84910        32.19195        -2.14130
O         43.11134        32.24489         1.73244
O         38.69685        37.93542         3.16536
H         39.56094        38.05156         3.62619
O         32.68832        30.31314         1.51333
H         32.67565        31.05179         2.15445
O         33.72402        44.02809        -2.61967
H         33.99342        44.40840        -3.47884
O         41.80926        43.20136         2.05564
H         41.45559        42.59442         2.74852
O         37.11543        33.55845         1.84278
H         36.52099        32.82964         2.20861
O         31.55460        42.61534         2.14453
H         30.70461        42.98789         2.45692
O         50.91117        32.49243        -1.56712
H         50.76779        32.06384        -2.44106
O         45.45971        35.60461         2.07070
H         45.05058        36.34194         2.59023
O         37.68182        33.97757        -1.76254
H         37.61628        31.69411        -2.79712
O         40.33497        46.28647         1.24324
H         40.60265        47.21987         1.40101
O         48.98647        31.77297         1.39513
H         48.92152        32.15130         2.29905
O         39.42777        41.76874        -1.24330
H         38.66638        41.85252        -1.85475
O         43.81858        35.97340        -1.19467
H         44.25711        35.38203        -1.85264
O         42.71311        41.55684        -1.08426
H         42.13174        40.74566        -1.23066
O         31.93452        31.92396        -1.86886
H         32.00078        31.11029        -2.41320
O         31.00665        34.31421        -1.11421
H         31.02088        33.55850        -1.74686
O         44.45306        38.06422         2.55896
H         43.65782        38.33790         3.06604
O         35.27429        44.34531         0.58155
H         35.27672        43.89097         1.45413
O         36.10333        38.26625         2.68369
H         36.95223        38.37644         3.18380
O         45.55880        41.83390         2.33227
H         45.32365        42.74455         2.62745
