         661
 CSIRO Nanostructure Databank - Neutral Graphene Oxide Data Set
C          5.98718        31.67673        -1.32847
C          6.09480        33.03747        -1.42528
C          8.58061        27.73388         0.20412
C          8.52827        29.09065         0.13417
C          7.47866        29.68142        -0.71481
C          8.50541        32.11671         0.24182
C          6.87955        30.88621        -0.49321
C          8.48035        33.20050        -0.59174
C          7.22549        33.85248        -1.00271
C          8.30133        36.09497        -0.77865
C          7.17234        35.23851        -1.07258
C          8.25595        37.49070        -0.80175
C         10.91523        23.39397         0.47021
C         10.87692        24.82203         0.41010
C          9.72562        25.52585         0.65594
C         10.96182        27.77089         0.73343
C          9.66218        27.00134         0.98078
C         10.96784        29.13076         0.68089
C          9.61064        29.84588         0.95635
C         10.95485        32.01559         0.29398
C          9.69584        31.44096         0.88563
C         10.89906        33.32182        -0.03328
C          9.74332        33.96556        -0.73217
C         10.74021        36.15776        -0.46247
C          9.58539        35.44459        -0.58142
C         10.72172        37.62583        -0.38853
C          9.43095        38.31243        -0.64328
C         10.66080        40.48794        -0.82279
C          9.44321        39.69631        -0.72628
C         10.62519        41.86907        -0.86792
C         13.38826        19.10408         0.72387
C         13.35524        20.49784         0.47931
C         12.14809        21.26105         0.50050
C         13.36118        23.40809         0.14990
C         12.11753        22.66941         0.35279
C         13.39399        24.78081         0.10457
C         12.10906        25.57086        -0.04225
C         13.50829        27.67567         0.35047
C         12.20818        26.97229         0.53730
C         13.58836        29.19886         0.42371
C         12.20316        29.83727         0.08766
C         13.26905        31.93788        -0.73899
C         12.30741        31.35569         0.31887
C         13.14069        33.22583        -1.22136
C         11.86697        33.96318        -0.95521
C         13.27278        36.11416        -0.91099
C         12.01270        35.41196        -0.57667
C         13.28747        37.61659        -0.89345
C         12.01183        38.36826        -0.61829
C         13.08587        40.46859        -1.35525
C         11.94369        39.79885        -1.00515
C         13.12143        41.93802        -1.46413
C         11.81589        42.67850        -1.18052
C         13.18985        44.71217        -0.73451
C         11.94702        44.07379        -0.77628
C         13.25843        46.11293        -0.48691
C         15.94976        14.86035         1.08678
C         15.96491        16.30501         0.82305
C         14.72346        16.96038         0.80089
C         15.80032        19.08241         0.33967
C         14.60130        18.37174         0.63950
C         15.78968        20.50304         0.22339
C         14.59282        21.18980         0.23703
C         15.88648        23.32918        -0.13797
C         14.57001        22.60448        -0.26582
C         15.83377        24.76692        -0.23193
C         14.65572        25.48414        -0.09393
C         15.82741        27.64125        -0.47824
C         14.68455        26.93723        -0.16219
C         15.81440        29.07258        -0.74383
C         14.65581        29.78687        -0.50870
C         15.50355        31.68548        -2.05735
C         14.42766        31.10309        -1.15563
C         15.37812        33.20563        -2.51051
C         14.26729        33.95267        -1.76960
C         15.50307        36.08684        -1.94051
C         14.32696        35.35506        -1.64210
C         15.51111        37.56123        -2.24296
C         14.41611        38.33205        -1.53894
C         15.61252        40.48842        -1.59205
C         14.30777        39.79079        -1.92018
C         15.63901        41.81203        -1.25295
C         14.41416        42.60175        -1.18163
C         15.68035        44.59510        -0.45081
C         14.43682        43.95251        -0.85535
C         15.66950        45.94195        -0.09210
C         14.48275        46.75833        -0.21612
C         15.80710        48.78780         0.36510
C         14.57645        48.14886         0.00737
C         15.87583        50.19693         0.55200
C         18.79869        11.33037         3.21320
C         18.60618        12.64296         2.73278
C         17.34006        12.96792         2.17397
C         18.72671        15.48409         1.53701
C         16.93074        14.29924         1.88392
C         18.52463        16.44770         0.53695
C         17.17608        17.02858         0.44151
C         17.94512        19.11477        -0.77916
C         17.00146        18.37683         0.03872
C         18.05776        20.48379        -0.76136
C         17.12953        21.19862         0.17789
C         18.44035        23.33366        -0.27848
C         17.07986        22.66094        -0.14761
C         18.31344        24.69617        -0.91784
C         17.05474        25.44700        -0.68910
C         18.36138        27.60330        -0.99020
C         17.10741        26.91914        -0.57542
C         18.20887        28.98203        -1.51437
C         16.98945        29.66565        -1.39947
C         17.90722        31.37972        -2.80461
C         16.82549        30.94799        -2.06843
C         17.83893        33.48298        -2.93689
C         16.67770        33.98220        -2.40562
C         17.94679        36.06432        -1.97659
C         16.71999        35.38024        -2.06128
C         17.98672        37.49657        -1.87433
C         16.82879        38.23861        -1.95545
C         17.96168        40.14123        -0.82463
C         16.91259        39.75025        -1.87423
C         18.12526        41.64617        -0.75225
C         16.97559        42.53638        -1.19161
C         18.08947        44.37228         0.08688
C         16.91908        43.84300        -0.43082
C         18.07599        45.70388         0.73308
C         16.84511        46.55558         0.53684
C         18.19575        48.62354         1.22207
C         16.96350        48.01090         0.59616
C         18.31776        50.09555         0.95731
C         17.10893        50.85234         0.81173
C         18.40842        52.91370         1.06216
C         17.16968        52.25852         0.91983
C         18.44931        54.29848         1.41706
C         21.37861         7.60275         5.40730
C         20.89215         8.91709         5.11234
C         20.03464         9.39005         4.14513
C         21.19449        11.56988         3.66655
C         20.00967        10.80106         3.74873
C         21.13260        12.90843         3.03284
C         19.80901        13.54195         2.67418
C         21.07974        15.18340         1.17413
C         19.88564        14.69616         1.71879
C         21.02619        16.36427         0.35301
C         19.76096        16.92180        -0.07059
C         21.00739        18.76843        -1.15326
C         19.83777        17.98291        -0.99771
C         21.00899        20.09738        -1.67570
C         19.10985        21.23164        -1.40846
C         20.73293        23.17020        -1.43505
C         19.46090        22.52256        -1.07960
C         20.76803        24.60660        -1.46574
C         19.57976        25.42138        -1.20466
C         20.82984        27.57404        -1.53044
C         19.56249        26.78311        -1.34044
C         20.56374        28.84501        -2.31434
C         19.37237        29.52784        -2.19180
C         20.38117        31.68815        -2.89653
C         19.26662        30.90151        -2.68344
C         20.45953        33.22004        -2.86962
C         19.15509        33.87759        -2.42857
C         20.47217        35.95823        -1.70932
C         19.17344        35.28239        -1.83944
C         20.49870        37.31772        -1.58423
C         19.27183        38.12015        -1.54699
C         20.44618        39.90573        -0.29158
C         19.26773        39.38488        -1.01349
C         20.45740        41.36165         0.07128
C         19.27657        42.20328        -0.27899
C         20.54437        44.17932         0.44440
C         19.33903        43.62377         0.04783
C         20.62321        45.58005         0.91581
C         19.37841        46.39093         1.03570
C         20.71434        48.48872         0.94821
C         19.48187        47.86777         0.96323
C         20.82548        49.95950         0.93954
C         19.56912        50.73470         0.95066
C         20.89311        52.86523         0.82514
C         19.61212        52.15081         0.93030
C         20.91792        54.30000         1.30461
C         19.64881        54.95742         1.69273
C         20.93537        56.92025         2.45628
C         19.70181        56.26715         2.20435
C         20.96277        58.24122         2.93116
C         24.00913         5.51949         7.00470
C         22.81794         5.96519         6.41763
C         23.71109         8.32632         6.41715
C         22.60460         7.31243         6.03015
C         23.80276         9.52808         5.48683
C         22.62726        10.20659         5.17625
C         23.71755        11.65589         3.60984
C         22.50392        11.14532         4.11735
C         23.67783        12.67261         2.54418
C         22.34662        13.32375         2.25854
C         23.55741        15.15143         1.12072
C         22.35887        14.60114         1.52474
C         23.54967        16.24279         0.09109
C         22.24040        16.97538        -0.03006
C         23.42321        19.01404        -0.80962
C         22.22791        18.24850        -0.63340
C         23.35557        20.37327        -1.19839
C         22.08551        20.98686        -1.49045
C         23.19854        23.17930        -1.73552
C         21.97083        22.44238        -1.60501
C         23.15464        24.56944        -1.96744
C         21.95213        25.28837        -1.83944
C         23.03214        27.33778        -2.67247
C         21.97061        26.73836        -2.06330
C         22.98028        28.75069        -3.11570
C         21.68164        29.48519        -3.05018
C         22.94116        31.66745        -2.69076
C         21.68585        31.01156        -3.24756
C         22.93114        32.95338        -2.24836
C         21.59713        33.55707        -1.78662
C         22.96371        35.83506        -1.54132
C         21.66221        35.08497        -1.33165
C         23.00926        37.19142        -1.29350
C         21.79310        38.08389        -1.45239
C         23.00069        39.87371        -0.21381
C         21.71964        39.06520        -0.27915
C         22.99112        41.25799         0.17618
C         21.75714        42.02552         0.28523
C         23.00735        44.10729         0.73011
C         21.77738        43.41681         0.46065
C         23.08807        45.49995         0.88204
C         21.90310        46.29737         0.85039
C         23.21577        48.34027         1.02470
C         21.94530        47.69566         0.92525
C         23.34777        49.81124         0.73749
C         22.04723        50.58203         0.87850
C         23.36459        52.66939         1.47327
C         22.20071        52.08114         0.67340
C         23.38182        54.10363         1.78238
C         22.18821        54.87644         1.78802
C         23.41155        56.82968         2.63896
C         22.18423        56.19668         2.28134
C         23.41482        58.17601         3.10515
C         22.18274        58.89291         3.24627
C         23.43171        60.83613         4.03218
C         22.21846        60.22915         3.71537
C         25.13091         6.34045         7.06595
C         26.24716         8.32220         6.21246
C         25.07555         7.66832         6.55837
C         26.27610         9.52821         5.42780
C         25.01182        10.06835         4.99905
C         26.19373        11.77022         3.66416
C         24.97520        11.18791         4.09888
C         26.22647        12.75715         2.51918
C         24.90520        13.41881         2.23109
C         26.04657        15.41429         1.34278
C         24.84100        14.60965         1.53608
C         25.97179        16.64320         0.69799
C         24.74563        17.15345         0.15054
C         25.90589        19.04029        -0.99051
C         24.67152        18.40710        -0.43995
C         25.82821        20.52096        -1.21239
C         24.57058        21.14929        -1.33431
C         25.72648        23.24054        -1.83258
C         24.50273        22.53028        -1.65153
C         25.71250        24.68790        -2.13064
C         24.39066        25.35362        -2.24122
C         25.45813        27.30872        -3.61228
C         24.17276        26.49519        -3.21912
C         25.45177        28.79737        -3.23727
C         24.26718        29.48968        -3.17740
C         25.51830        31.65206        -2.70935
C         24.21950        30.97583        -3.05164
C         25.49311        32.92192        -1.95325
C         24.21976        33.68478        -2.08222
C         25.44396        35.66848        -1.00618
C         24.24042        35.10868        -1.66189
C         25.40164        36.99409        -0.63396
C         24.22548        37.80392        -0.83794
C         25.46633        39.78028         0.00230
C         24.20534        39.15538        -0.35472
C         25.47554        41.24205         0.13849
C         24.20032        41.93460         0.35129
C         25.50332        43.98237         1.13637
C         24.18751        43.25577         1.06516
C         25.52219        45.41492         1.30601
C         24.34786        46.15857         1.15098
C         25.63151        48.25989         1.52926
C         24.38378        47.59602         1.21345
C         25.61779        49.68314         1.80851
C         24.49986        50.44592         1.51480
C         25.66939        52.50280         2.35493
C         24.45309        51.86977         1.77546
C         25.84369        53.96207         2.08339
C         24.59100        54.74775         2.13436
C         25.88097        56.76748         2.84156
C         24.63786        56.10807         2.51441
C         25.86602        58.06932         3.28808
C         24.64675        58.80810         3.43712
C         24.63761        60.14198         3.89830
C         27.45573        10.15633         5.03549
C         28.63316        11.98063         3.83068
C         27.43915        11.29788         4.16996
C         28.62193        13.24752         3.16271
C         27.37291        13.72920         2.60583
C         28.46066        15.80128         1.90101
C         27.29020        14.98029         1.98395
C         28.45000        16.97874         1.12603
C         27.11813        17.61676         0.81652
C         28.31626        19.22302        -0.67989
C         27.16189        18.62869        -0.29071
C         28.30506        20.50503        -1.37369
C         27.02217        21.21646        -1.45350
C         28.27392        23.35762        -1.92956
C         26.96745        22.58786        -1.78924
C         28.17118        24.64228        -2.74723
C         26.89082        25.34305        -2.75780
C         27.97485        27.36556        -3.66312
C         26.76539        26.61630        -3.24659
C         27.94144        28.82808        -3.44164
C         26.74454        29.49621        -3.21049
C         27.93614        31.53725        -2.45080
C         26.76925        30.87448        -2.76138
C         27.89068        32.69148        -1.49910
C         26.59749        33.42199        -1.33001
C         27.79846        35.33996         0.00654
C         26.46977        34.68336        -0.44668
C         27.74698        36.78337         0.32146
C         26.43951        37.53557         0.30707
C         27.81278        39.66187         0.76777
C         26.60209        39.03776         0.26192
C         27.85499        41.01367         1.05882
C         26.74850        41.88777         0.69591
C         27.84796        43.83741         1.93895
C         26.64876        43.24761         1.26506
C         27.92657        45.32696         1.76947
C         26.78886        46.07728         1.53927
C         28.08200        48.18412         1.91897
C         26.81649        47.52443         1.66444
C         28.10558        49.51220         2.28220
C         26.78793        50.17504         2.65857
C         28.19649        52.37280         2.78644
C         26.86574        51.69700         2.73829
C         28.29636        53.73446         2.75719
C         27.15564        54.60119         2.37625
C         27.23001        56.08327         2.71093
C         29.77314        14.02638         3.08616
C         30.97037        15.96097         1.98418
C         29.71933        15.45712         2.65224
C         30.93824        17.02965         1.08983
C         29.64863        17.57517         0.71200
C         30.84834        19.09313        -1.00102
C         29.59979        18.57114        -0.36990
C         30.74887        20.27483        -1.98673
C         29.46748        21.08841        -1.79847
C         30.60821        23.03309        -3.04394
C         29.38969        22.42516        -2.44016
C         30.57434        24.48446        -3.44775
C         29.29681        25.22255        -3.27989
C         30.55592        27.40361        -3.60936
C         29.29740        26.64258        -3.70178
C         30.52005        28.85855        -3.68878
C         29.20141        29.58349        -3.55417
C         30.47392        31.76465        -2.74608
C         29.19748        31.00470        -2.98404
C         30.40449        33.01128        -1.91688
C         29.18068        33.34695        -1.09419
C         30.45840        35.37305        -0.18717
C         29.18390        34.63165        -0.27793
C         30.60717        36.44450         0.70493
C         28.75331        37.42628         1.03641
C         30.25951        39.43755         1.29507
C         28.97637        38.84228         1.08358
C         30.32165        40.86538         1.53392
C         29.02095        41.59215         1.83696
C         30.37419        43.75470         2.00799
C         29.11568        43.09921         1.50297
C         30.41128        45.13062         2.23097
C         29.15922        45.97740         2.32238
C         30.59337        48.00593         2.31647
C         29.35635        47.37233         1.72391
C         30.66638        49.50512         2.22364
C         29.35256        50.20744         2.50729
C         29.38211        51.54628         2.80627
C         32.12629        17.68634         0.61201
C         33.23527        19.55231        -0.57781
C         32.11433        18.76649        -0.29592
C         33.17464        20.71370        -1.42912
C         31.97512        21.15126        -2.01824
C         33.15706        23.23706        -2.90563
C         31.96349        22.30230        -3.01605
C         33.12865        24.53841        -3.34737
C         31.85511        25.22129        -3.72811
C         33.09671        27.46660        -3.48398
C         31.86351        26.74835        -4.01432
C         33.06525        28.78825        -3.09422
C         31.83747        29.60942        -3.38459
C         32.84381        31.35416        -1.80265
C         31.84923        31.13030        -3.09034
C         32.95435        32.89232        -1.62357
C         31.69972        33.67125        -1.55491
C         32.87693        35.60309        -0.57904
C         31.68844        34.94711        -0.81331
C         32.88327        37.02618        -0.11155
C         31.62827        37.40359         0.61813
C         32.77609        39.41062         1.31761
C         31.52421        38.72702         1.11222
C         32.82947        40.91057         1.33200
C         31.51586        41.56720         1.68687
C         32.80709        43.61959         2.32346
C         31.55944        42.97391         2.00324
C         32.81452        45.02316         2.58980
C         31.64878        45.78205         2.52520
C         31.65650        47.24006         2.66605
C         34.37187        21.43837        -1.67959
C         35.61731        23.30680        -2.58574
C         34.40442        22.64096        -2.42824
C         35.70492        24.54712        -3.33562
C         34.38937        25.25653        -3.65900
C         35.60306        27.42463        -3.13524
C         34.41531        26.79230        -3.82680
C         35.51604        28.69243        -2.60673
C         34.27051        29.43420        -2.55913
C         35.39402        31.40771        -1.53544
C         34.21914        30.72436        -2.01319
C         35.40533        32.72984        -1.06925
C         34.09919        33.40330        -0.71969
C         35.35979        35.46012        -0.06346
C         34.20708        34.98436        -0.92476
C         35.26991        36.66894         0.65932
C         34.08478        37.41439         0.72710
C         35.18001        39.22461         2.13145
C         33.98168        38.68522         1.34376
C         35.16219        40.72403         2.24671
C         34.02937        41.48083         2.05980
C         33.99276        42.86150         2.40728
C         36.93262        25.35215        -3.24447
C         38.10052        27.46383        -2.92212
C         36.88322        26.72314        -3.13787
C         38.06116        28.73302        -2.38120
C         36.73618        29.27340        -1.99641
C         37.93293        31.44235        -1.33843
C         36.67798        30.68320        -1.47647
C         37.88084        32.77008        -0.90562
C         36.60947        33.41174        -0.70722
C         37.80563        35.37410         0.28037
C         36.56652        34.72859        -0.14900
C         37.77147        36.57387         0.95196
C         36.48700        37.12831         1.50707
C         36.43685        38.62516         1.57842
C         39.23357        29.49101        -2.09775
C         40.39940        31.54009        -1.34999
C         39.18664        30.79146        -1.58820
C         40.36238        32.82024        -0.88487
C         39.10863        33.48676        -0.62066
C         39.05895        34.74585        -0.05283
O         28.67295        23.75693        -0.64075
O         26.73770        54.32757         0.97507
O         35.11842        24.54328        -4.69310
O         31.12959        24.56644        -4.82130
O         17.14846        45.86649         1.85566
O         32.20506        30.81384        -0.74425
O         25.93550        52.19895         3.77589
O         29.67750        36.63300         1.72398
O         29.60336        22.33491        -3.88075
O         19.87621        20.53490        -2.36615
O         18.04705        27.43512         0.45354
O         20.10724        40.32184         1.09650
O         25.18571        25.57576        -1.04808
O         13.02910        35.58686         0.45206
O         22.84787        12.23652         1.39134
O         20.88136        53.97869        -0.14348
O         13.12178        27.09309         1.67206
O         17.74493        32.37638        -3.77731
O         18.68968        18.36023        -1.69824
O         30.24245        33.08341        -3.37344
O         28.63456        32.26252        -0.28568
O         28.53579        26.95672        -4.97119
O         29.08671        30.73385        -4.42867
O          7.29153        31.57717         0.67966
O         28.47205        34.49160         0.98201
O         24.42490        34.72772        -3.12107
O         17.38390        24.86211        -2.03498
O         33.76141        33.13943         0.56635
O         11.49474        38.17126         0.73899
O         10.71880        33.87553        -1.98546
O         14.41985        38.13674        -0.10525
O         21.49437         9.91999         5.92882
O         30.20263        17.91693        -1.59164
O         26.42716        41.91734        -0.74910
O         20.50853        13.89295         3.92420
O         17.74117        15.28447         2.49814
O         31.39418        29.38811        -4.74237
O         36.61733        29.51544        -0.55834
O         19.05157        34.09511        -0.98314
O         32.61650        33.71830        -2.73988
O         19.98203        45.79925         2.24669
O         14.42372        30.92501        -2.66339
O         12.33908        42.46976        -2.58041
O         22.08577        28.82510        -4.31580
O         24.95340        31.72383        -4.07506
O         20.81000        33.75755        -4.14426
H         21.33961        33.07966        -4.63230
O         26.80096        18.42185         2.01583
H         26.68771        17.80005         2.76649
O         12.88221        31.64314         1.60813
H         12.80083        32.60625         1.77065
O         29.59132        47.23437         0.30267
H         30.02125        48.06537        -0.00159
O         11.94931        25.77511        -1.48287
H         11.85202        24.89405        -1.90233
O         21.66139        38.22306         0.90414
H         21.30153        38.78276         1.63091
O         12.05822        29.64475        -1.34268
H         11.30575        30.18107        -1.66796
O         23.71366        15.52804        -1.20194
H         23.02609        14.82882        -1.24040
O         27.67756        43.67041         3.38800
H         26.72215        43.76582         3.59146
O         32.14478        21.66157        -4.30395
H         31.29651        21.19707        -4.50646
O         25.86452        34.23612         0.80641
H         26.57807        33.77619         1.30892
O          9.27055        29.57912         2.33660
H          9.91050        30.07888         2.89282
O         14.01966        29.51197         1.75327
H         13.71321        28.78291         2.34038
O         14.98576        33.16517        -3.90142
H         14.39143        32.38599        -4.00476
O         17.70686        21.09240         1.53402
H         17.01291        21.36029         2.17384
O         36.31005        36.50794         2.79986
H         35.73610        37.10524         3.33991
O         25.47305        27.34902        -5.07118
H         26.39075        27.52564        -5.37480
O         23.98764        42.87245         2.50193
H         23.05584        42.57367         2.59448
O         27.97939        56.25974         3.92235
H         27.46291        55.88746         4.66626
O         31.92936        26.86675        -5.46923
H         31.31670        26.17906        -5.82894
O         15.26006        37.63790        -3.68509
H         15.86835        37.00984        -4.12917
O         17.38586        40.21733        -3.18074
H         16.72154        39.91869        -3.84119
O         21.97521        38.87636        -2.65021
H         22.12938        38.26920        -3.40390
O         34.58200        35.31632        -2.27085
H         33.87441        34.96425        -2.86890
O         21.24879        28.00961        -0.19254
H         20.44294        28.15342         0.35009
O         29.15287        43.22044         0.06208
H         30.02368        42.90347        -0.25713
O         32.37599        31.74965        -4.23304
H         31.81974        32.53463        -4.44766
O         28.90934        46.16661         3.74636
H         28.61022        45.29234         4.09485
O         14.38727        22.45403        -1.72807
H         14.69178        23.28650        -2.15022
O         17.97055        48.47756         2.67420
H         17.78643        47.51791         2.82997
O         23.73641        49.85080        -0.67392
H         23.53489        50.75962        -1.00877
O          9.66378        31.93879         2.25848
H          8.73071        31.88841         2.56132
O         17.28303        42.91342        -2.57585
H         17.41242        42.06244        -3.06983
O         33.05010        41.26878        -0.08831
H         32.70671        40.53338        -0.64144
O         30.63306        19.70117        -3.32230
H         30.18027        18.82954        -3.20517
O         21.79163        31.27124        -4.68196
H         22.06400        30.41347        -5.10321
O         23.66863        25.82866        -4.39583
H         23.77459        26.44475        -5.15520
O         21.26215        32.74339        -0.64926
H         20.93621        33.33481         0.06942
O         26.50575        49.69020         4.00302
H         25.95899        50.38531         4.43884
O         28.77923        41.41484         3.25408
H         28.72351        40.45208         3.42876
O         25.87980        37.24795         1.64416
H         25.72533        36.27429         1.68335
O         14.13134        39.88859        -3.36317
H         13.79093        40.78796        -3.56370
O         22.60766        52.24750        -0.72374
H         22.24551        53.12319        -1.01051
O          9.33555        26.96698         2.39235
H          9.15882        27.89898         2.67643
O         21.59171        35.04213         0.13362
H         21.55894        35.96830         0.46970
O         26.00008        18.45648        -2.34767
H         25.84109        17.49058        -2.27016
O         29.60677        16.25102         3.93253
H         29.67240        17.19879         3.68276
O         23.35875         8.81843         7.73923
H         22.49576         9.28229         7.64464
O         34.62002        27.07074        -5.23800
H         33.74565        26.95529        -5.69029
O         18.95507        23.55769         1.05761
H         18.89410        22.69437         1.53159
O         31.01401        49.79855         0.84602
H         30.94944        50.76786         0.71556
O         32.97084        37.85998        -1.32550
H         33.66958        37.46014        -1.89143
O         26.50424        11.91931         1.32743
H         25.67263        11.45002         1.09983
O         34.98519        38.73314         3.50834
H         34.09491        39.01507         3.80761
O         17.43272        39.73452         0.46287
H         18.14742        39.88954         1.12543
H          5.17763        31.16449        -1.87156
H          5.31153        33.57053        -1.98873
H          7.82358        27.13724        -0.32890
H          7.13985        29.06804        -1.56384
H          6.22364        35.71735        -1.36123
H          7.29530        37.99275        -0.99535
H          9.98419        22.85455         0.70439
H          8.81164        24.96221         0.90618
H          8.48728        40.23503        -0.81887
H          9.68265        42.39586        -0.65280
H         12.45060        18.57358         0.94798
H         11.19738        20.73497         0.67836
H         11.04403        44.63613        -0.49422
H         12.32697        46.69786        -0.47850
H         15.11254        14.26225         0.69805
H         13.81634        16.37184         1.00454
H         13.67268        48.76780        -0.09089
H         14.96486        50.80082         0.43159
H         17.92162        10.66495         3.21480
H         16.62954        12.14387         2.00591
H         16.23996        52.84541         0.92196
H         17.49652        54.82029         1.59018
H         20.74711         6.74468         5.12319
H         19.40514         8.68846         3.57781
H         18.76251        56.80028         2.41339
H         20.01453        58.78235         3.06723
H         24.08310         4.47403         7.33546
H         22.00198         5.24350         6.26050
H         23.44157        61.87415         4.39330
H         21.27682        60.78536         3.82777
H         26.10190         5.92237         7.37029
H         27.20809         7.83133         6.43475
H         26.81672        58.55902         3.54636
H         25.58778        60.63305         4.15225
H         28.42311         9.77171         5.39009
H         29.58920        11.60402         4.22468
H         29.28421        54.20955         2.85707
H         27.81645        56.59780         1.90438
H         30.71849        13.64126         3.49753
H         31.93724        15.56033         2.32347
H         31.47252        49.91155         2.89816
H         30.35333        52.05180         2.92878
H         33.09149        17.38230         1.04535
H         34.19814        19.31078        -0.10365
H         33.77515        45.51299         2.80937
H         32.59163        47.71801         3.00028
H         35.31915        21.04297        -1.28375
H         36.51564        22.93122        -2.07331
H         36.03800        41.19422         2.72227
H         34.90790        43.33624         2.79353
H         37.89735        24.83005        -3.15701
H         39.06344        26.97379        -3.12803
H         38.71613        37.05111         1.25396
H         36.90562        39.17551         0.74449
H         40.21234        29.03889        -2.31843
H         41.36313        31.04694        -1.54363
H         41.29613        33.36790        -0.69036
H         39.99313        35.26433         0.21085
