         490
 CSIRO Nanostructure Databank - Neutral Graphene Oxide Data Set
C         38.05054        50.10219         2.77810
C         36.89410        50.78229         2.93103
C         38.06128        52.91615         3.15650
C         36.90714        52.19956         3.24096
C         40.70429        48.67446         2.80716
C         40.58122        50.05654         2.57007
C         39.36620        50.78094         3.10526
C         40.35950        52.93198         2.21562
C         39.30287        52.25975         2.77725
C         40.34744        54.36740         1.96728
C         42.89536        48.64229         1.73855
C         41.81719        47.97661         2.36039
C         42.83293        50.05249         1.59771
C         41.64160        50.73566         1.96408
C         42.82140        52.90867         1.65669
C         41.49582        52.17869         1.55943
C         42.80011        54.40684         1.62915
C         41.46698        55.05520         1.63654
C         45.16815        45.80145         0.73738
C         44.07990        46.50584         1.24747
C         45.17083        48.61225         0.69497
C         44.05262        47.90904         1.23148
C         45.17511        50.05303         0.68662
C         43.99995        50.78540         1.12448
C         45.13263        52.94619         0.68691
C         44.01167        52.18391         1.15354
C         45.08083        54.32807         0.55219
C         43.97622        55.11146         1.05143
C         45.19681        57.17990         0.52667
C         44.05585        56.48647         1.05884
C         47.57288        44.27956        -0.11746
C         47.40340        45.70609        -0.37901
C         46.28131        46.46948         0.21660
C         47.50445        48.60934        -0.16531
C         46.30913        47.89216         0.21781
C         47.50969        50.03169        -0.08537
C         46.33219        50.73967         0.29536
C         47.49966        52.91640        -0.27157
C         46.44789        52.22123         0.55779
C         47.44409        54.33937        -0.39972
C         46.09153        55.02271        -0.33570
C         47.33848        57.20937        -0.82642
C         46.19227        56.51565        -0.11774
C         47.40483        58.69548        -0.65557
C         49.93450        44.34688        -0.79672
C         48.73714        43.64565        -0.44298
C         49.95670        45.74177        -0.84716
C         48.68289        46.48058        -0.75969
C         49.92757        48.62458        -0.67434
C         48.70620        47.92992        -0.51417
C         49.91908        50.05162        -0.63691
C         48.70970        50.75075        -0.40006
C         49.84001        52.85669        -1.08655
C         48.64655        52.18112        -0.57500
C         49.83676        54.38647        -1.02082
C         48.60815        55.08394        -0.62232
C         49.86059        57.21405        -0.34686
C         48.65349        56.52347        -0.52657
C         49.87644        58.68598        -0.46752
C         48.58599        59.34427        -0.60565
C         52.55438        41.63298        -0.24797
C         51.36001        42.29301        -0.28871
C         52.42561        44.36661        -1.14292
C         51.16669        43.53571        -1.13002
C         52.42970        45.75297        -1.15348
C         51.17770        46.49487        -1.00097
C         52.38000        48.66420        -1.10796
C         51.16297        47.90579        -0.94693
C         52.39384        50.04997        -1.04378
C         51.15034        50.78277        -0.87336
C         52.35927        52.93710        -1.42582
C         51.12633        52.15224        -1.04301
C         52.32860        54.34634        -0.86037
C         51.11419        55.05550        -0.75698
C         52.31324        56.91423         0.14712
C         51.07263        56.38609        -0.25849
C         52.31129        59.05609        -0.12652
C         51.02233        59.50348        -0.57439
C         52.27742        61.36532        -1.58508
C         51.09372        60.81868        -1.20430
C         55.03309        40.05985        -1.03390
C         54.98608        41.51256        -0.92439
C         53.74405        42.19892        -0.79699
C         54.96868        44.38105        -1.19885
C         53.68016        43.60631        -1.23806
C         54.90629        45.84988        -1.15132
C         53.67994        46.48969        -1.22022
C         54.91025        48.68769        -1.13501
C         53.64385        47.96253        -1.53656
C         54.89783        50.09107        -1.03649
C         53.64312        50.80531        -1.10113
C         54.85506        52.94073        -0.89597
C         53.63960        52.19918        -1.10441
C         54.82699        54.34332        -0.74411
C         53.55171        55.02642        -0.67193
C         54.74970        57.21309        -0.60913
C         53.53794        56.37680        -0.24797
C         54.74063        58.70626        -0.32872
C         53.51738        59.45204        -0.61924
C         54.82320        61.48797        -1.13437
C         53.60890        60.64089        -1.52398
C         54.98355        62.73562        -1.64550
C         57.42170        40.13852        -1.80474
C         56.14580        39.42085        -1.44002
C         57.43890        41.57789        -1.30522
C         56.19632        42.22885        -1.01006
C         57.43127        44.44301        -0.95938
C         56.17829        43.68942        -0.62363
C         57.41898        45.81264        -1.09789
C         56.16265        46.56377        -1.12997
C         57.40060        48.72645        -1.06623
C         56.13538        47.96404        -1.09605
C         57.36127        50.15506        -0.69436
C         56.11814        50.83642        -0.84510
C         57.32073        52.96142        -0.49511
C         56.09899        52.24217        -0.73522
C         57.26554        54.36063        -0.35584
C         56.03175        55.07137        -0.44666
C         57.19285        57.19565         0.08579
C         56.02325        56.48442        -0.28271
C         57.11671        58.66978         0.25049
C         55.91582        59.38590        -0.23268
C         57.30819        61.49818        -0.53899
C         55.92005        60.90745        -0.24613
C         57.37588        62.85567        -1.08871
C         56.22328        63.45426        -1.54158
C         59.86968        37.35981        -0.81874
C         58.67685        38.04692        -1.01896
C         59.91332        40.09407        -1.40769
C         58.68679        39.41057        -1.35460
C         59.90344        41.56584        -1.76745
C         58.64063        42.25123        -1.25552
C         59.89093        44.40791        -1.42227
C         58.72065        43.68153        -0.75295
C         59.89643        45.88151        -1.08272
C         58.70327        46.53174        -1.07629
C         59.90023        48.68257        -0.50010
C         58.70319        48.01236        -1.05726
C         59.69747        50.01240         0.19005
C         58.52893        50.81624        -0.33095
C         59.78834        52.91064        -0.02004
C         58.56116        52.24371        -0.27736
C         59.83246        54.37708        -0.14792
C         58.50630        55.13195        -0.23218
C         59.63839        57.23737         0.56358
C         58.42360        56.53399         0.20937
C         59.64139        58.65458         0.47399
C         58.41088        59.44144         0.36581
C         59.75999        61.58361        -0.01292
C         58.44440        60.84185        -0.14243
C         59.81765        62.87084        -0.79319
C         58.69165        63.48510        -1.27996
C         60.06490        65.34115        -2.18753
C         58.85087        64.72417        -2.02918
C         62.43890        35.90982        -0.30328
C         62.36478        37.22460        -0.96323
C         61.10511        38.00601        -0.96640
C         62.40931        40.11977        -1.24930
C         61.13872        39.40154        -1.22597
C         62.37878        41.55990        -1.18507
C         61.16945        42.27260        -1.33252
C         62.26940        44.32342        -0.58203
C         61.15516        43.66204        -1.11162
C         62.07921        45.68519         0.03687
C         61.22725        46.59222        -0.91461
C         62.17768        48.61779         0.36094
C         61.07888        47.99662        -0.34717
C         62.16207        49.99333         0.65180
C         60.98087        50.78312         0.32078
C         62.34582        52.84399         0.45223
C         60.98425        52.16792         0.29028
C         62.26571        54.36806         0.65924
C         61.01940        55.13483         0.36464
C         62.05205        57.27276         1.24878
C         60.83705        56.52683         0.84757
C         62.11109        58.77667         0.97324
C         60.93369        59.27687         0.16822
C         62.31540        61.36724        -0.11301
C         61.00033        60.71846        -0.21657
C         62.31043        62.85113        -0.30019
C         61.18335        63.31300        -1.26443
C         62.48477        65.48898        -1.53891
C         61.27853        64.78658        -1.65280
C         62.77438        66.79828        -2.05668
C         64.90295        35.93830        -0.28165
C         63.62117        35.29563        -0.05730
C         64.91345        37.30356        -0.68037
C         63.67996        37.97759        -1.12937
C         64.88660        40.18116        -1.19044
C         63.64387        39.45983        -1.17878
C         64.85276        41.62398        -1.04757
C         63.58556        42.27829        -0.92643
C         64.67946        44.37851        -0.13502
C         63.50811        43.65325        -0.53596
C         64.57816        45.73583         0.40669
C         63.35812        46.36572         0.47714
C         64.44216        48.43196         1.53755
C         63.14858        47.73001         1.10974
C         64.46846        49.92542         1.56338
C         63.30586        50.64396         1.23705
C         64.44784        52.83582         1.89095
C         63.12876        52.12455         1.57695
C         64.56170        54.29247         1.62542
C         63.23285        54.99493         1.66531
C         64.61302        57.15165         1.12426
C         63.32552        56.51801         1.49769
C         64.63921        58.53085         0.73009
C         63.45584        59.28876         0.52357
C         64.80517        61.33189         0.01833
C         63.50773        60.66039         0.11688
C         64.89780        62.68469        -0.33634
C         63.65259        63.35640        -0.86035
C         65.51987        65.52305        -1.66496
C         63.47874        64.85034        -0.61388
C         65.24422        66.89962        -1.51565
C         64.00145        67.44385        -1.99621
C         67.35176        33.20921         0.48045
C         66.18735        33.89179         0.39588
C         67.37534        35.96689        -0.19791
C         66.13097        35.27018        -0.04254
C         67.36609        37.36833        -0.49686
C         66.11812        38.02828        -0.73802
C         67.36850        39.96722        -1.44217
C         66.10221        39.41201        -1.14732
C         67.32490        42.02478        -1.23024
C         66.00188        42.45801        -0.87594
C         67.19785        44.54203        -0.18065
C         65.91312        43.76900        -0.33893
C         67.03957        45.74952         0.71008
C         65.82549        46.34414         0.91580
C         67.03753        48.40427         1.96151
C         65.73523        47.66732         1.61179
C         66.95463        49.91506         1.85595
C         65.71144        50.58471         1.81021
C         66.98902        52.78801         1.84487
C         65.71955        52.05395         1.97486
C         67.01316        54.19546         1.69007
C         65.76229        54.94923         1.56043
C         67.05861        56.97009         0.95629
C         65.82036        56.38798         1.23269
C         67.11272        58.34500         0.42884
C         65.90222        59.17510         0.48405
C         67.28197        61.22864         0.19247
C         66.00031        60.55335         0.21815
C         67.32508        62.66055         0.09552
C         66.14768        63.38592        -0.34224
C         67.29742        65.55276         0.03072
C         66.28450        64.77463        -0.68255
C         67.42254        66.99178        -0.28562
C         66.10997        67.71119        -0.55209
C         67.52749        69.72789        -1.02067
C         66.33000        69.13404        -0.99711
C         69.90832        31.88378         1.10211
C         69.88641        33.20854         0.64012
C         68.64490        33.79801         0.02624
C         69.83577        36.01108        -0.07018
C         68.61322        35.29370        -0.02508
C         69.83192        37.41720        -0.35128
C         68.59557        38.07969        -0.57465
C         69.78088        40.27193        -0.86109
C         68.59495        39.45776        -0.97559
C         69.72850        41.70695        -0.72194
C         68.48737        42.43720        -0.61632
C         69.65153        44.46866         0.22192
C         68.38390        43.65301         0.27773
C         69.60509        45.79232         0.68852
C         68.32143        46.31625         1.31835
C         69.50350        48.57325         1.55883
C         68.23606        47.85162         1.18564
C         69.44854        49.91740         1.91748
C         68.16835        50.61815         1.98087
C         69.41289        52.76403         2.16616
C         68.19441        52.06301         1.99368
C         69.46387        54.15932         1.93974
C         68.25785        54.85541         1.65371
C         69.62990        56.84330         1.00029
C         68.30320        56.35597         1.54845
C         69.72403        58.26829         0.49915
C         68.45833        59.04200         0.24698
C         69.75105        61.17594         0.44557
C         68.49417        60.51237         0.32875
C         69.78511        62.60751         0.41330
C         68.56388        63.32007         0.25541
C         69.84430        65.50569         0.37528
C         68.57557        64.77498         0.41141
C         69.84420        66.91024         0.19694
C         68.62836        67.62001        -0.19044
C         69.85986        69.79354         0.02594
C         68.82653        69.00785        -0.76181
C         69.77747        71.17781         0.21731
C         72.25564        32.06847         1.64470
C         71.07846        31.31645         1.60627
C         72.25815        33.37553         1.16819
C         71.08529        33.96306         0.64886
C         72.26722        36.07218        -0.00886
C         71.08470        35.34770         0.17239
C         72.25751        37.43179        -0.34188
C         71.05641        38.14558        -0.47397
C         72.19610        40.36278        -0.49847
C         71.02487        39.59776        -0.64145
C         72.15158        41.75478        -0.44126
C         70.92852        42.43798        -0.47803
C         72.01022        44.69759        -0.24482
C         70.86409        43.88218        -0.20269
C         71.97253        46.00359         0.23587
C         70.79105        46.55287         0.75969
C         71.97626        48.75121         1.34054
C         70.81239        47.83051         1.57945
C         71.89258        50.07030         1.70077
C         70.66606        50.64502         2.12664
C         71.85621        52.79321         2.73306
C         70.57814        52.00993         2.75956
C         71.90007        54.11039         2.41587
C         70.73788        54.85698         2.00175
C         72.04701        56.92434         1.50806
C         70.83856        56.20060         1.56890
C         72.10251        58.27208         1.13626
C         70.97681        59.00621         0.73210
C         72.17774        61.17857         0.75495
C         70.97815        60.44347         0.62799
C         72.20007        62.56687         0.71628
C         71.02238        63.31903         0.55215
C         72.26090        65.51412         0.53810
C         71.05535        64.77762         0.49035
C         72.25194        66.90435         0.52763
C         71.05666        67.63007         0.36089
C         72.05307        69.81303         1.08220
C         71.01217        69.09537         0.46334
C         71.95844        71.19186         1.26307
C         70.81683        71.87495         0.83891
O         43.07459        53.66006         2.88347
O         59.37379        54.91504        -1.42494
O         64.86798        47.76159         2.79924
O         54.49231        43.84497        -2.46128
O         52.31299        58.09099         0.89240
O         68.70183        33.34831        -1.49628
O         62.59709        57.12146         2.64377
O         58.19363        48.56256        -2.33343
O         64.96088        52.46800         3.21702
O         67.41060        41.09217        -2.27782
O         67.58614        65.21117         1.40898
O         57.52402        59.21983         1.55951
O         67.75013        58.51271        -0.91146
O         47.69227        46.08459        -1.76427
O         62.19220        55.07191        -0.60692
O         63.85835        65.39410         0.41596
O         49.69557        53.68528        -2.31017
O         63.04768        37.28959        -2.26366
O         61.03294        59.65764        -1.24546
O         69.79256        57.11094        -0.41099
O         55.62621        61.32803         1.12262
H         56.20082        60.77640         1.70657
O         58.96320        43.63966         0.68966
H         59.68546        44.28323         0.91287
O         61.31577        62.53650        -2.50833
H         60.60798        62.84253        -3.11490
O         56.06426        43.74636         0.83487
H         56.97026        43.58215         1.19209
O         68.36987        45.86409         2.69414
H         67.99288        46.57744         3.27276
O         65.12569        64.96804        -2.82432
H         65.15879        63.98378        -2.80170
O         61.87022        59.46377         2.24484
H         62.32557        58.93555         2.94236
O         45.53297        54.84657        -1.68656
H         46.01424        55.48278        -2.27158
O         39.49192        50.69304         4.56563
H         38.72972        51.17758         4.94875
O         70.97610        47.36046         2.97781
H         70.91666        48.15140         3.55647
O         53.62108        48.02697        -3.01285
H         54.42986        47.57818        -3.34053
O         62.41098        47.48645         2.37379
H         63.10104        47.25826         3.04392
O         65.39304        67.78028         0.70838
H         64.90880        66.92933         0.84050
O         67.57439        45.04778        -1.49832
H         66.81128        45.54483        -1.86170
O         59.71117        44.34316        -2.87717
H         58.89848        44.84800        -3.10029
O         63.69407        63.05926        -2.27933
H         63.30470        62.16751        -2.42177
O         41.16453        52.14380         0.13016
H         40.94310        53.05782        -0.14856
O         62.09860        63.46127         0.98707
H         61.35935        62.97537         1.43453
O         54.68545        57.24907        -2.09988
H         54.75764        56.32360        -2.42386
O         47.00828        52.29411         1.93390
H         46.32168        51.95086         2.54604
O         63.10548        52.63174        -0.75489
H         62.82063        53.32493        -1.39518
O         69.43591        68.77665        -2.07939
H         69.66077        69.65241        -2.45813
O         68.15222        43.21555         1.63435
H         68.28571        43.99231         2.23182
O         53.87930        60.14799        -2.87950
H         54.25866        59.24131        -2.80032
O         70.25484        51.77886         4.18237
H         70.06357        52.65146         4.58691
O         47.10192        56.98916        -2.27252
H         47.91091        57.27177        -2.75036
O         59.83885        41.63049        -3.23493
H         59.84197        42.59439        -3.46665
O         59.28946        49.65907         1.57199
H         60.09744        49.36008         2.04463
O         69.92833        33.82994        -2.04585
H         69.67690        34.69103        -2.46130
O         59.84683        61.94732         1.41793
H         59.01836        62.41461         1.65946
O         67.29842        48.15982         3.37346
H         66.42678        48.23977         3.82906
O         50.97519        43.04739        -2.50432
H         50.88574        43.83137        -3.08701
O         67.97761        48.13134        -0.21879
H         68.68967        47.71369        -0.74955
O         68.32511        56.86200         2.94033
H         67.54782        56.48513         3.40647
O         57.46920        40.17029        -3.25735
H         58.31511        40.62292        -3.51010
O         61.22091        45.43786         1.20035
H         61.41884        46.15340         1.86434
O         52.33087        53.08454        -2.88510
H         51.41184        53.37153        -3.11282
O         62.30516        52.13216         2.76161
H         62.90981        52.22190         3.53222
O         62.69120        54.68532         2.97116
H         62.42691        55.54470         3.38393
O         61.89052        46.68808        -2.19242
H         61.60587        45.92970        -2.74545
H         38.04133        49.02631         2.54940
H         35.92351        50.28304         2.79661
H         38.03633        54.00749         3.28708
H         35.95610        52.70147         3.46791
H         39.90149        48.13760         3.33111
H         39.39433        54.91098         2.04443
H         41.85476        46.89175         2.52485
H         41.39984        56.13083         1.41746
H         45.12917        44.70413         0.73449
H         43.22918        45.93425         1.63946
H         45.23067        58.27335         0.63860
H         43.25001        57.08531         1.50517
H         46.75296        43.70253         0.33167
H         46.47146        59.27226        -0.72761
H         48.78315        42.55372        -0.33210
H         48.57868        60.44387        -0.58143
H         52.61989        40.66950         0.28026
H         50.49367        41.84228         0.21572
H         52.26160        62.34569        -2.08534
H         50.16566        61.37616        -1.40305
H         54.10643        39.49474        -0.85494
H         54.18290        63.19599        -2.24315
H         56.09705        38.33765        -1.62165
H         56.25240        64.46906        -1.96033
H         59.83160        36.28288        -0.60632
H         57.73191        37.49281        -0.94903
H         60.09868        66.32762        -2.67348
H         57.95898        65.21704        -2.43853
H         61.50593        35.41286        -0.00130
H         61.93997        67.36269        -2.50316
H         63.60412        34.29751         0.40126
H         63.98789        68.52302        -2.23066
H         67.32861        32.16173         0.81079
H         65.25749        33.38361         0.68655
H         67.59220        70.77591        -1.35577
H         65.43116        69.72341        -1.23653
H         69.00046        31.26677         1.06614
H         68.88615        71.73078        -0.11030
H         73.17936        31.62865         2.04557
H         71.07242        30.27905         1.96802
H         73.19255        33.95180         1.20659
H         73.24037        35.57864         0.11719
H         73.22300        37.93890        -0.47129
H         73.16796        39.86765        -0.37173
H         73.08866        42.30621        -0.28423
H         72.96369        44.29700        -0.61558
H         72.90563        46.58243         0.24757
H         72.95815        48.32853         1.08908
H         72.79681        50.69543         1.66997
H         72.76770        52.29833         3.09933
H         72.86606        54.63184         2.47406
H         72.98129        56.45391         1.84389
H         73.07116        58.77977         1.24034
H         73.13166        60.64996         0.88005
H         73.16839        63.07367         0.82125
H         73.22574        64.99585         0.61800
H         73.20811        67.43833         0.61835
H         72.94563        69.28480         1.44534
H         72.77767        71.73773         1.75117
H         70.73405        72.96007         0.98991
