         404
 CSIRO Nanostructure Databank - Neutral Graphene Oxide Data Set
C          1.21245         3.50089         1.62282
C          0.04082         4.18819         1.50463
C          1.12685         6.29620         0.84674
C         -0.01070         5.57582         1.14313
C          1.12830         7.68627         0.39844
C         -0.06840         8.39500         0.21448
C          1.11251        10.50845        -0.12473
C         -0.07983         9.76560        -0.04872
C          1.11089        11.96359        -0.26891
C         -0.09619        12.71615        -0.34638
C          1.07478        14.86777        -0.36575
C         -0.10705        14.10262        -0.44633
C          1.11414        16.29941        -0.48988
C         -0.08714        17.03791        -0.44710
C          1.09227        19.12397        -0.87090
C         -0.09065        18.41500        -0.61583
C          1.01683        20.59377        -1.06338
C         -0.03275        21.35719        -0.36770
C          1.20779        23.46294        -0.66533
C          0.04470        22.70153        -0.24990
C          1.23055        24.86318        -0.43486
C          0.36424        25.53677         0.48917
C          1.08045        27.74958        -0.41616
C          0.34767        26.89730         0.59737
C          1.16348        29.20675        -0.03263
C         -0.01641        29.90168         0.26968
C          1.22819        31.97316         0.58924
C          0.02029        31.25277         0.60418
C          1.26567        33.39320         0.95713
C          0.17004        34.03839         1.56748
C          1.38149        36.14876         1.63706
C          0.22841        35.38893         1.89863
C          1.45648        37.54875         2.02817
C          3.74876         3.47424         1.28841
C          2.49672         4.19467         1.50430
C          3.61538         6.20481         0.31952
C          2.44066         5.66709         1.10195
C          3.61558         7.71316         0.30502
C          2.37266         8.39674         0.23475
C          3.59138        10.51776        -0.16266
C          2.35151         9.81420         0.00184
C          3.58730        11.96394        -0.36335
C          2.33184        12.66047        -0.29479
C          3.61929        14.90796        -0.45574
C          2.32359        14.12947        -0.19647
C          3.58697        16.33619        -0.79668
C          2.35223        17.01630        -0.71576
C          3.56464        19.12488        -1.22101
C          2.33398        18.43586        -0.94572
C          3.54238        20.54906        -1.62321
C          2.27343        21.34079        -1.45234
C          3.62119        23.44938        -1.27103
C          2.35793        22.78215        -1.14557
C          3.62350        24.92819        -1.33457
C          2.32819        25.65828        -0.99798
C          3.62815        27.75101        -0.71293
C          2.41106        27.08825        -0.66968
C          3.65392        29.15769        -0.23178
C          2.38559        29.89682        -0.04273
C          3.65468        32.03262         0.01160
C          2.42479        31.29181         0.22169
C          3.57100        33.50170         0.02479
C          2.42900        34.15319         0.68809
C          3.73144        36.28169         0.83916
C          2.49814        35.52666         1.02141
C          3.73253        37.78975         1.01848
C          2.54297        38.30630         1.78168
C          6.21560         3.51832         1.16807
C          4.95526         4.17462         1.05755
C          6.12511         6.28549         0.55872
C          4.92126         5.56656         0.71672
C          6.08460         7.69888         0.29002
C          4.84411         8.40708         0.19217
C          6.05300        10.50892        -0.44121
C          4.80172         9.82156        -0.07695
C          6.04091        11.98020        -0.82622
C          4.76302        12.66418        -0.65267
C          6.07736        14.87312        -1.14365
C          4.77041        14.10839        -0.92051
C          6.06906        16.33506        -0.99253
C          4.81970        17.02635        -1.00770
C          6.06904        19.17147        -1.17441
C          4.80458        18.45448        -1.16689
C          6.10324        20.58166        -1.33437
C          4.85717        21.30338        -1.67684
C          6.06753        23.53079        -1.63634
C          4.81360        22.77505        -1.50054
C          6.08976        24.98485        -1.42151
C          4.89626        25.68529        -1.24834
C          6.08758        27.89920        -1.41779
C          4.85595        27.09569        -1.03466
C          6.13965        29.29102        -0.84953
C          4.92668        29.94236        -0.34598
C          6.10138        32.14328        -0.41819
C          4.85567        31.41334        -0.30945
C          6.12022        33.51641        -0.18645
C          4.88349        34.29037        -0.07243
C          6.16350        36.48523         0.29846
C          4.89027        35.67780         0.44243
C          6.21607        37.70609         1.19795
C          5.04007        38.29959         1.56768
C          8.69685         3.52549         1.12006
C          7.43013         4.20931         0.97573
C          8.62278         6.31487         0.36359
C          7.37402         5.60317         0.68038
C          8.64272         7.80095         0.37719
C          7.32958         8.47272         0.43299
C          8.57985        10.69575        -0.07879
C          7.30094         9.94839         0.13151
C          8.55655        11.99563        -0.81581
C          7.30076        12.76622        -0.81411
C          8.59129        14.88149        -0.91416
C          7.34373        14.13190        -0.97399
C          8.55363        16.31587        -0.85531
C          7.30127        17.02807        -0.91595
C          8.50996        19.18651        -0.74580
C          7.29287        18.46646        -0.94189
C          8.48231        20.60768        -0.78170
C          7.30926        21.29623        -1.15180
C          8.59104        23.53779        -1.05454
C          7.38053        22.75802        -1.44027
C          8.60551        24.93463        -1.14402
C          7.40083        25.69933        -1.66485
C          8.56806        27.82090        -1.02317
C          7.38077        27.14654        -1.23183
C          8.58947        29.26964        -0.89359
C          7.34815        29.99706        -0.79919
C          8.59143        32.11905        -0.58730
C          7.35242        31.42004        -0.56761
C          8.64815        33.54038        -0.28461
C          7.39099        34.17686         0.14603
C          8.68845        36.33964         0.49769
C          7.39637        35.63048         0.50903
C          8.70471        37.68089         1.06091
C          7.50074        38.26314         1.49559
C         11.19658         3.53293         1.08372
C          9.92558         4.15197         0.92187
C         11.18019         6.33560         0.57821
C          9.91408         5.55747         0.45581
C         11.12165         7.80172         0.34901
C          9.81209         8.49179         0.22583
C         11.12554        10.63147        -0.39237
C          9.87379         9.96260         0.05626
C         11.12695        12.02942        -0.58597
C          9.86616        12.73424        -0.91584
C         11.05997        14.90444        -0.71491
C          9.82705        14.20401        -0.86736
C         11.02799        16.33401        -0.64410
C          9.77839        17.03483        -0.71096
C         10.98078        19.15601        -0.40233
C          9.76136        18.46675        -0.59333
C         10.97175        20.61014        -0.16049
C          9.67567        21.37895        -0.38189
C         10.98235        23.50559        -0.46473
C          9.75917        22.82959        -0.64216
C         11.01716        24.93679        -0.58177
C          9.80781        25.65767        -0.86761
C         11.03998        27.79112        -0.75535
C          9.81899        27.08471        -0.90437
C         11.06860        29.22909        -0.79007
C          9.80985        29.96776        -0.82533
C         11.05431        32.13464        -0.92402
C          9.79384        31.39073        -0.76466
C         11.07535        33.64400        -0.75810
C          9.81713        34.29519        -0.32644
C         11.09538        36.47090         0.07961
C          9.83801        35.68308         0.10451
C         11.16623        37.72224         0.87624
C          9.95691        38.30358         1.30261
C         13.67346         3.53050         0.89760
C         12.42450         4.18722         0.80227
C         13.61513         6.24619         0.09883
C         12.44844         5.58480         0.42244
C         13.55999         7.64176        -0.41580
C         12.31064         8.44683        -0.28461
C         13.56022        10.62483        -0.47265
C         12.34135         9.93002        -0.37845
C         13.57456        12.03964        -0.52102
C         12.34059        12.74963        -0.61398
C         13.52735        14.91297        -0.53303
C         12.30634        14.19843        -0.64999
C         13.49806        16.34135        -0.42892
C         12.25414        17.04662        -0.49195
C         13.45467        19.19724        -0.20278
C         12.22840        18.47267        -0.37760
C         13.45582        20.63090        -0.15854
C         12.23550        21.36003        -0.22123
C         13.45929        23.48150        -0.19351
C         12.22052        22.77066        -0.26341
C         13.47558        24.91280        -0.21840
C         12.23623        25.64210        -0.41328
C         13.47621        27.78205        -0.36670
C         12.25620        27.06871        -0.51750
C         13.51283        29.18277        -0.49046
C         12.29222        29.90299        -0.68864
C         13.59049        32.14817        -0.50492
C         12.30723        31.38624        -0.59567
C         13.56889        33.64532        -0.66232
C         12.37991        34.31932        -0.52572
C         13.63632        36.36885         0.28275
C         12.39995        35.77334        -0.25061
C         13.64875        37.64557         0.89632
C         12.41369        38.30350         1.16589
C         16.12287         3.51839         0.81000
C         14.89034         4.18615         0.61379
C         16.08062         6.21688        -0.18035
C         14.89331         5.57505         0.16526
C         16.14353         7.65515        -0.57997
C         14.84334         8.39425        -0.63285
C         16.11570        10.60425        -0.26877
C         14.81956         9.85879        -0.30404
C         16.04380        12.06487        -0.48596
C         14.83454        12.76030        -0.53335
C         15.97456        14.95453        -0.34999
C         14.78967        14.21581        -0.51185
C         15.95023        16.36488        -0.13251
C         14.71008        17.06427        -0.21383
C         15.91167        19.19864         0.11209
C         14.68870        18.49125        -0.10227
C         15.91109        20.62596         0.14908
C         14.68576        21.33821        -0.02489
C         15.92002        23.46897         0.07303
C         14.68379        22.76532        -0.03937
C         15.92941        24.89179         0.00823
C         14.69703        25.59709        -0.09580
C         15.99302        27.74451        -0.24174
C         14.70161        27.07895         0.15267
C         15.99664        29.16466        -0.44162
C         14.78570        29.86647        -0.44257
C         16.02960        31.76926        -1.29818
C         14.89823        31.36983        -0.39452
C         16.01873        33.92348        -1.06135
C         14.81017        34.40461        -0.56550
C         16.10678        36.21610         0.45429
C         14.84519        35.66412         0.09346
C         16.11578        37.52696         1.05132
C         14.91713        38.20337         1.26580
C         18.58936         3.54324         0.84550
C         17.34774         4.13578         0.52194
C         18.66033         6.25554        -0.15709
C         17.33431         5.46244        -0.11962
C         18.61858         7.73336        -0.29211
C         17.42636         8.42663        -0.43713
C         18.58821        10.61967        -0.38780
C         17.40680         9.87500        -0.46159
C         18.56842        12.05788        -0.25254
C         17.31901        12.77005        -0.59688
C         18.47828        14.96260         0.05870
C         17.28200        14.29314        -0.47081
C         18.40671        16.35733         0.32017
C         17.16361        17.07118         0.14648
C         18.34565        19.19903         0.59435
C         17.13840        18.48351         0.28421
C         18.34230        20.62709         0.62371
C         17.12855        21.34003         0.35605
C         18.36665        23.48284         0.46147
C         17.13987        22.76237         0.29616
C         18.40132        24.89745         0.24168
C         17.17402        25.59594         0.00221
C         18.44675        27.68238        -0.53837
C         17.17099        27.00856        -0.24493
C         18.45666        29.14747        -0.66243
C         17.28002        29.85061        -0.65193
C         18.48302        32.08191        -1.48650
C         17.26052        31.22796        -1.12494
C         18.47562        33.37995        -0.62242
C         17.27987        34.30216        -0.54348
C         18.57689        35.94839         0.91077
C         17.30512        35.47515         0.23566
C         18.57865        37.45428         1.09866
C         17.40780        38.14065         1.28364
C         19.77967         4.27625         0.83526
C         21.01270         6.41795         0.64897
C         19.82700         5.62943         0.47105
C         21.09182         7.70622         0.21185
C         19.92426         8.40293        -0.35155
C         21.06484        10.74175         0.00453
C         19.90712         9.96526        -0.44189
C         20.95356        12.06424         0.28225
C         19.71442        12.78211         0.07983
C         20.80835        14.94512         0.72272
C         19.66983        14.23187         0.26725
C         20.76677        16.30948         0.92917
C         19.57926        17.05212         0.72605
C         20.70659        19.22417         1.21862
C         19.54909        18.49119         0.86305
C         20.70361        20.60562         1.23675
C         19.54068        21.34046         0.90803
C         20.74572        23.52711         1.00144
C         19.56145        22.78633         0.80851
C         20.78844        24.89597         0.74908
C         19.64911        25.58884         0.32021
C         20.91704        27.85290         0.05371
C         19.74750        26.97507        -0.19955
C         20.94006        29.14331        -0.33376
C         19.75825        29.80910        -0.94480
C         21.03397        32.06102        -1.13553
C         19.78652        31.27782        -1.31073
C         21.03923        33.32031        -0.66823
C         19.79727        33.98549        -0.20486
C         20.94507        36.18331         0.14541
C         19.82457        35.41453         0.22167
C         20.97289        37.54074         0.63682
C         19.84678        38.14429         1.10795
O          9.32209        10.76507         1.17788
O         15.91343        32.93466        -2.04662
O         19.00424        33.12814         0.71912
O          3.19925        14.61835         0.90511
O          3.98529        34.12861        -1.22975
O          7.16497         9.50097         1.50190
O          9.24879        12.07156        -2.09769
O         17.46725        13.63497        -1.77298
O          9.28231         5.75211        -0.85234
O         12.81283        31.82256         0.72832
O          2.71810        25.38313        -2.38621
O         19.25989        27.03783        -1.58419
O         19.92361        30.25393        -2.34836
O         10.12174        21.01665         0.97501
O         11.05560        33.00488        -2.09541
O         11.69705        36.59654        -1.25290
O          7.33121        34.63916         1.58065
O         15.45068        10.15746         0.99430
O          4.21002        20.80882        -2.90166
O         12.64396         7.79451        -1.56268
O          2.68965         5.32943         2.47820
O          4.52455        29.29815         0.95710
O          6.10087        10.89715        -1.84374
O         20.16677         9.12275        -1.59970
O          1.24854        21.01324        -2.45400
O          5.23288        14.42891        -2.26825
O          6.90192        23.08781        -2.78047
O         11.29114         7.27467         1.71810
O         15.49761         8.00575        -1.87184
O         18.15128         5.54979        -1.33256
O          7.54335        25.74450        -3.13673
H          7.41456        24.81407        -3.45175
O         18.43550        32.49830        -2.85749
H         18.66992        31.71734        -3.40534
O         14.62825        27.21949         1.63173
H         13.79028        26.79894         1.92116
O          0.32029        27.71318        -1.66481
H          0.39937        26.80868        -2.03669
O          6.20745        36.96345        -1.07071
H          5.42366        37.55168        -1.18719
O         15.41192        31.70214         0.94185
H         14.65702        31.57662         1.56188
O         18.57339        35.37448         2.25574
H         18.62443        34.39533         2.13372
O          3.35653         5.78400        -1.07055
H          4.07667         6.14348        -1.63119
O          3.64534        38.33791        -0.35307
H          2.80393        38.01463        -0.74123
O          5.97155        28.09624        -2.88343
H          6.38791        27.30771        -3.31309
H          1.21072         2.41138         1.77329
H         -0.91312         3.65488         1.62417
H         -1.00429         6.03038         1.02473
H         -1.03175         7.87456         0.30414
H         -1.05126        10.26406        -0.16596
H         -1.06046        12.19159        -0.36810
H         -1.07655        14.60336        -0.57359
H         -1.04106        16.52705        -0.26349
H         -1.04931        18.94874        -0.57796
H         -0.89407        20.82481         0.05927
H         -0.78449        23.24337         0.22554
H         -0.25888        24.93973         1.17167
H         -0.24892        27.37816         1.38691
H         -0.97695        29.36885         0.25481
H         -0.92075        31.76065         0.85445
H         -0.74416        33.47606         1.79975
H         -0.63426        35.86993         2.38171
H          0.59016        37.97725         2.55512
H          3.76763         2.38136         1.41644
H          2.56177        39.36247         2.09037
H          6.23729         2.44903         1.42538
H          5.04260        39.22563         2.16322
H          8.67449         2.46648         1.41871
H          7.54083        39.22084         2.03714
H         11.22975         2.47876         1.39877
H          9.98207        39.26145         1.84377
H         13.70380         2.47715         1.21443
H         12.43379        39.26765         1.69628
H         16.11862         2.50040         1.22766
H         14.93865        39.20744         1.71546
H         18.59769         2.51209         1.22685
H         17.43976        39.21680         1.51619
H         20.69940         3.80129         1.20746
H         21.89992         5.93056         1.07968
H         22.05211         8.23713         0.25435
H         22.04737        10.25318         0.04974
H         21.85446        12.60899         0.59094
H         21.75644        14.42489         0.90627
H         21.68487        16.81457         1.25580
H         21.63900        18.70017         1.46511
H         21.63353        21.12776         1.49673
H         21.67471        23.02424         1.29941
H         21.74871        25.42183         0.84159
H         21.80052        27.42349         0.54913
H         21.84830        29.74198        -0.16981
H         21.97328        31.59038        -1.46059
H         21.99043        33.86542        -0.59456
H         21.87219        35.78754        -0.29407
H         21.92360        38.08991         0.59607
H         19.86854        39.19825         1.42315
