         429
 CSIRO Nanostructure Databank - Neutral Graphene Oxide Data Set
C          1.47641         1.91026        -1.71712
C          1.43876         3.30940        -1.70809
C          2.63386         1.22507        -1.37100
C          2.57477         4.06955        -1.35039
C          1.41434         6.25902        -1.72074
C          1.39188         7.64186        -1.64301
C          2.54329         5.52295        -1.30069
C          2.47525         8.36797        -1.09626
C          1.27629        10.62355        -1.54311
C          1.41622        11.95278        -1.85689
C          2.36547         9.85581        -0.91187
C          2.55760        12.74009        -1.53787
C          1.52193        14.85467        -2.42345
C          1.63405        16.18319        -2.76853
C          2.63915        14.12308        -1.90773
C          2.85811        16.88958        -2.60711
C          2.96875        18.27622        -2.93460
C          3.80782         1.94022        -1.01328
C          3.77271         3.37591        -1.01126
C          4.99239         1.26069        -0.64987
C          4.94912         4.10857        -0.66290
C          3.67797         6.24510        -0.81099
C          3.61713         7.67195        -0.66564
C          4.87249         5.50660        -0.53252
C          4.75354         8.46927        -0.00939
C          3.59796        10.62792        -0.53599
C          3.62437        12.16055        -0.62086
C          4.88812         9.83420        -0.74206
C          4.99508        12.69700        -0.94846
C          3.87757        14.81499        -1.78959
C          3.99464        16.19133        -2.10483
C          5.08111        14.04036        -1.46493
C          5.21917        16.91471        -1.86764
C          4.14347        18.95781        -2.73962
C          5.29164        18.30747        -2.17516
C          6.18381         1.95885        -0.33335
C          6.18586         3.39894        -0.37737
C          7.38193         1.27220        -0.03283
C          7.39175         4.09153        -0.15590
C          6.09873         6.21967        -0.12240
C          6.06778         7.69981         0.03262
C          7.40868         5.56695        -0.50324
C          7.35296         8.42847        -0.01044
C          6.16084        10.60612        -0.45330
C          6.19787        11.99330        -0.68111
C          7.43661         9.82915        -0.54815
C          7.46272        12.72479        -0.47806
C          6.38931        14.82135        -1.12694
C          6.33629        16.29293        -1.24356
C          7.43498        14.11684        -0.36586
C          7.47581        17.03383        -0.92460
C          6.48279        19.02142        -1.92585
C          7.58047        18.40737        -1.29517
C          8.58195         1.96602         0.24321
C          8.57861         3.40667         0.19594
C          9.80486         1.28658         0.47800
C          9.78581         4.10593         0.55006
C          8.62138         6.31825         0.04215
C          8.50514         7.77112         0.27839
C          9.81423         5.58539         0.53016
C          9.63279         8.60378         0.84376
C          8.70046        10.58524        -0.21484
C          8.69744        11.94638        -0.29933
C          9.99694         9.76917        -0.09875
C         10.02032        12.58879        -0.57213
C          8.42406        14.98460         0.34791
C          8.51775        16.43680        -0.06431
C          9.64081        14.43340         1.00627
C          9.82507        17.11713         0.02909
C          8.81111        19.10213        -1.05095
C          9.91458        18.48026        -0.46668
C         11.00497         1.99250         0.71168
C         10.95227         3.42920         0.83501
C         12.26875         1.35805         0.72333
C         12.16712         4.15006         1.36787
C         10.93663         6.31753         1.17247
C         10.83216         7.79545         1.36571
C         12.13931         5.65671         1.24437
C         12.08996         8.54398         1.68504
C         11.19797        10.54965         0.43633
C         11.26349        11.99052         0.06518
C         12.17919         9.97544         1.22454
C         12.29907        12.84332         0.78153
C         10.87344        15.04883         0.90280
C         10.93740        16.44359         0.51258
C         12.11932        14.28140         1.23447
C         12.17912        17.21147         0.75974
C         11.17629        19.15134        -0.40944
C         12.29787        18.54501         0.13592
C         13.48054         2.11556         0.69425
C         13.45631         3.52827         0.90002
C         14.71559         1.49015         0.42504
C         14.63854         4.29545         0.81679
C         13.40437         6.35901         1.38242
C         13.34483         7.70124         2.07106
C         14.60757         5.72946         1.14155
C         14.63872         8.50112         2.05136
C         13.37055        10.73571         1.58456
C         13.42715        12.11248         1.42541
C         14.60673        10.01457         1.97718
C         14.66523        12.84702         1.60321
C         13.41101        15.02592         1.46516
C         13.44807        16.51499         1.23874
C         14.69702        14.28905         1.41549
C         14.74389        17.14631         0.88725
C         13.56990        19.17861         0.14194
C         14.74250        18.50667         0.46814
C         15.90299         2.24642         0.30824
C         15.85371         3.66350         0.48540
C         17.13385         1.59623         0.00627
C         17.07146         4.49907         0.18842
C         15.87378         6.45976         1.25566
C         15.89483         7.82255         1.68683
C         17.08123         5.82061         0.92815
C         17.10511         8.56014         1.69914
C         15.89447        10.71679         1.80752
C         15.86249        12.13504         1.77190
C         17.10352         9.99935         1.83469
C         17.11418        12.90979         2.07910
C         15.89011        14.98402         1.25919
C         15.94891        16.39944         0.96316
C         17.15412        14.20331         1.28789
C         17.21943        17.07201         0.84225
C         16.03418        19.24439         0.20649
C         17.27422        18.49201         0.61410
C         18.36072         2.29898        -0.01955
C         18.36185         3.72812         0.31488
C         19.54835         1.68920        -0.41074
C         19.54183         4.36692         0.59052
C         18.32310         6.49205         1.11339
C         18.34154         7.86978         1.48328
C         19.55528         5.78871         0.87841
C         19.59031         8.56340         1.62976
C         18.37020        10.72586         1.88304
C         18.38567        12.10845         1.95861
C         19.61301         9.97574         1.87195
C         19.65662        12.87952         2.21084
C         18.46206        14.92241         1.17466
C         18.45444        16.39057         1.03715
C         19.70004        14.25317         1.58697
C         19.67495        17.07953         1.11971
C         18.46389        19.17971         0.68229
C         19.70901        18.52171         0.97836
C         20.79947         2.52149        -0.53651
C         20.80835         3.51936         0.68852
C         22.04613         1.69616        -0.83959
C         22.06765         4.35760         0.68051
C         20.76810         6.49742         0.96907
C         20.79364         7.83769         1.40461
C         22.02375         5.81932         0.55947
C         22.09040         8.45563         1.72625
C         20.84723        10.69064         1.95324
C         20.90868        12.08687         1.96987
C         22.11597         9.95149         2.05619
C         22.15757        12.79884         1.91401
C         20.91298        14.91633         1.46113
C         20.92577        16.36830         1.25697
C         22.14117        14.19302         1.64527
C         22.11703        17.07415         1.33387
C         20.89107        19.23000         1.10884
C         22.17256        18.57152         1.52037
C         23.24974         1.78281        -0.18014
C         23.27790         3.74161         0.79822
C         24.57453         1.49947        -0.62449
C         24.58011         4.34568         0.62189
C         23.35797         6.53158         0.68791
C         23.33816         7.85699         1.29048
C         24.62583         5.76074         0.75163
C         24.57569         8.59992         1.36826
C         23.40260        10.67624         1.97653
C         23.40659        12.10395         1.96741
C         24.59186         9.96986         1.87649
C         24.67508        12.79516         1.85498
C         23.40312        14.85985         1.34855
C         23.39099        16.36983         1.19374
C         24.68275        14.19035         1.62371
C         24.66457        17.12417         1.52872
C         23.40460        19.15716         0.86804
C         24.60725        18.48967         0.86833
C         25.72943         2.22394        -0.20055
C         25.75773         3.59602         0.34180
C         26.96395         1.62241        -0.52163
C         27.01359         4.29638         0.41526
C         25.85337         6.40933         0.92830
C         25.88841         7.88072         1.09650
C         27.06642         5.68126         0.79932
C         27.14837         8.54066         1.52542
C         25.88712        10.62373         2.25972
C         25.90853        12.09191         1.91118
C         27.13535         9.87320         1.85765
C         27.13343        12.76881         1.70999
C         25.89667        14.89813         1.44248
C         25.90006        16.31464         1.20740
C         27.12649        14.17315         1.43489
C         27.06297        16.94824         0.78667
C         25.81531        19.05186         0.35899
C         27.03058        18.34780         0.36755
C         28.21205         2.26526        -0.36070
C         28.23956         3.63812         0.07829
C         29.41275         1.60398        -0.67146
C         29.47556         4.32731         0.13317
C         28.32820         6.37222         0.92086
C         28.38201         7.78365         1.33293
C         29.50416         5.68020         0.59490
C         29.58956         8.44931         1.45263
C         28.38618        10.62658         2.08111
C         28.39607        12.07798         1.79112
C         29.68288         9.85943         1.87859
C         29.60053        12.73793         1.50103
C         28.33857        14.83763         1.09077
C         28.29411        16.20959         0.69691
C         29.57230        14.11610         1.07614
C         29.46632        16.82996         0.19669
C         28.21996        18.94138        -0.11513
C         29.42846        18.22444        -0.22533
C         30.65871         2.27772        -0.63789
C         30.69738         3.66737        -0.26105
C         31.85206         1.61245        -0.99436
C         31.92785         4.36792        -0.35222
C         30.82061         6.33047         0.73153
C         30.85331         7.77184         1.13417
C         31.99017         5.76939         0.01040
C         32.03181         8.58751         0.80577
C         30.91435        10.62596         1.61795
C         30.88020        12.03331         1.51187
C         32.09618         9.89847         1.24443
C         32.07866        12.75417         1.18452
C         30.73861        14.74279         0.55513
C         30.65285        16.07528         0.07127
C         32.01438        14.04525         0.59604
C         31.78554        16.67354        -0.65424
C         30.59561        18.84484        -0.72234
C         31.79802        18.12927        -0.91676
C         33.08053         2.30347        -1.08351
C         33.10609         3.71693        -0.81272
C         34.28523         1.65785        -1.44359
C         34.30623         4.45297        -1.03458
C         33.09886         6.53526        -0.24726
C         33.08966         8.05007        -0.12536
C         34.25137         5.92229        -0.93472
C         34.45219         8.62142         0.19425
C         33.40814        10.54299         1.39767
C         33.39266        12.12549         1.41081
C         34.58577         9.73533         0.98481
C         34.60238        12.88131         1.01575
C         33.19678        14.67732         0.11477
C         33.11753        15.93772        -0.63232
C         34.48285        14.10605         0.30794
C         34.34659        16.70444        -0.89466
C         32.97251        18.72595        -1.38049
C         34.23462        18.04810        -1.40204
C         35.49532         2.37238        -1.55764
C         35.50179         3.80697        -1.39680
C         36.71731         1.69451        -1.78797
C         36.75073         4.53721        -1.53525
C         35.55266         6.69019        -1.08786
C         35.67234         8.12980        -0.59789
C         36.78617         5.92305        -1.30338
C         36.96298         8.35449         0.20157
C         35.91700        10.23744         1.27170
C         35.89071        12.38956         1.25111
C         37.05424         9.79647         0.65115
C         37.05115        12.84892         0.58581
C         35.68548        14.78010        -0.10881
C         35.59355        16.10924        -0.69415
C         36.93349        14.14626         0.01281
C         36.78590        16.78196        -1.14232
C         35.39855        18.70926        -1.82205
C         36.67051        18.08332        -1.74922
C         37.93663         2.38849        -1.87692
C         37.95844         3.80502        -1.81489
C         39.17851         1.63129        -1.87255
C         39.24619         4.50033        -2.01144
C         38.06218         6.68015        -1.32340
C         38.18683         7.89353        -0.52128
C         39.35053         5.96312        -1.68983
C         39.40817         8.52851        -0.33384
C         38.28254        10.56758         0.56352
C         38.27583        12.04622         0.46448
C         39.44992         9.86349         0.23921
C         39.39972        12.65737        -0.12635
C         38.21731        14.88903        -0.26438
C         38.04313        16.15794        -1.05803
C         39.25454        13.96702        -0.89206
C         39.19566        16.76753        -1.60185
C         37.83498        18.72149        -2.22289
C         39.08825        18.08406        -2.16903
C         40.39334         2.22435        -1.80115
C         40.52476         3.68151        -1.96457
C         41.75555         4.36507        -1.51290
C         40.61813         6.53800        -1.19953
C         40.64099         7.85286        -0.71845
C         41.78806         5.68220        -1.18788
C         41.89314         8.54942        -0.47416
C         40.75336        10.59740         0.42644
C         40.65332        11.97529        -0.22288
C         41.95650         9.80642         0.00733
C         41.77148        12.63313        -0.70665
C         40.55470        14.70854        -1.14599
C         40.47206        16.09414        -1.58890
C         41.73370        14.00039        -1.10489
C         41.59126        16.78131        -2.06927
C         40.26541        18.72875        -2.65364
C         41.48654        18.09020        -2.58459
O         36.02676        11.32546         2.14532
O         11.10082         8.27262         2.73530
O         14.65636         9.31418         3.28446
O          7.85511        16.03059         1.22019
O         31.17506         6.68949         2.11925
O         23.25350         2.37216         1.11105
O          6.07279         6.78042         1.22091
O         23.44099        15.52909         0.00951
O         17.83946        14.17902         0.01063
O         10.11341        13.48744        -1.39648
O          9.76159         6.09083        -0.89339
O         22.65381         6.40298        -0.62771
O         22.12854         8.96205         3.12893
O         33.49231        11.31827         2.61558
O         39.97074         4.15842        -3.24151
O          2.67264        10.21088         0.50032
O         29.15492        10.15237         3.22577
O          6.16750        14.21872        -2.43247
O         12.42852        12.53420        -0.65320
O         25.26704         8.58693        -0.01109
O         38.65925         6.80035        -2.67140
O         12.59826        14.53071         2.58836
O         32.21588        15.86835        -1.80095
O         12.61593        17.25134         2.17370
O         34.59486         6.61019        -2.22246
O         35.74641         8.97922        -1.76239
H         35.23606         8.54750        -2.48294
O         12.13394         3.92766         2.82732
H         12.70157         4.61266         3.24465
O         20.63005         3.38682        -1.70188
H         20.49238         2.81771        -2.48751
O         40.91639        10.85331         1.86031
H         40.16608        11.41688         2.14680
O         16.95150         4.86618        -1.23985
H         17.81478         5.24283        -1.51583
O         32.69798         8.52741        -1.46376
H         33.23785         8.00699        -2.10895
O         38.73269        13.59726        -2.20214
H         39.37267        12.98543        -2.62254
O         24.68270        17.32151         2.96978
H         23.94605        17.94870         3.19256
O          7.46603         5.65093        -1.95075
H          8.41531         5.54856        -2.19685
O         19.68700        13.16700         3.67577
H         19.73500        12.30037         4.13408
O          3.30368        12.67891         0.71136
H          2.79271        11.96735         1.16803
O         16.97331        13.34344         3.47044
H         16.90475        12.54361         4.03264
O         20.71422         2.76851         1.90982
H         21.57523         2.30221         2.02657
O         38.74734        15.27570         1.03973
H         38.12346        15.91418         1.44404
O          4.91570         9.55352        -2.17281
H          5.85988         9.46135        -2.45494
O          9.01276         9.29099         1.96616
H          9.59347         9.15530         2.75614
O          4.41980         8.74115         1.36278
H          4.68503         7.94978         1.88484
O         15.99479        20.54277         0.81589
H         15.85488        20.42377         1.77763
O          9.51831        13.28952         1.73736
H          8.57354        13.07152         1.87460
O         22.33725        18.81745         2.99003
H         21.50586        18.53194         3.42731
O         13.17310         7.27831         3.44987
H         13.38853         8.05765         4.01333
O          7.62697         9.56006        -2.01619
H          8.52502         9.15031        -2.11004
O         36.83308         7.52823         1.40342
H         37.56474         7.76063         2.01340
O         10.34200         9.24901        -1.40764
H         10.77610         9.96262        -1.92243
O         25.91576        10.55677         3.73796
H         25.16786        11.09660         4.07255
H          0.57262         1.34992        -1.99483
H          0.49805         3.80976        -1.97367
H          2.65146         0.12590        -1.37210
H          0.53571         5.74172        -2.12850
H          0.49635         8.17174        -1.99415
H          0.35322        10.10936        -1.84545
H          0.59008        12.42979        -2.40491
H          0.54717        14.36024        -2.53140
H          0.75825        16.72244        -3.15818
H          2.08904        18.79438        -3.34346
H          4.99635         0.16044        -0.63696
H          4.21302        20.02613        -2.99098
H          7.38358         0.17202        -0.03047
H          6.54335        20.08373        -2.20496
H          9.82615         0.18785         0.42581
H          8.90560        20.14081        -1.40004
H         12.32470         0.26652         0.59824
H         11.25988        20.16121        -0.83789
H         14.75299         0.40061         0.27991
H         13.64456        20.21261        -0.22604
H         17.12671         0.51651        -0.20477
H         16.10291        19.42819        -0.90356
H         19.55578         0.62217        -0.68118
H         18.46370        20.26663         0.51379
H         22.06848         1.28155        -1.86181
H         20.87469        20.32763         1.03133
H         24.73276         0.69427        -1.35859
H         23.33620        20.16559         0.43163
H         26.95665         0.60201        -0.93359
H         25.79299        20.07436        -0.04856
H         29.38092         0.55138        -0.98957
H         28.19409        19.99155        -0.44308
H         31.81729         0.54041        -1.23824
H         30.56381        19.91494        -0.97654
H         34.28394         0.57190        -1.61836
H         32.95320        19.79009        -1.66025
H         36.71627         0.59635        -1.84946
H         35.32603        19.72870        -2.22889
H         39.09866         0.53588        -1.80589
H         37.76023        19.73053        -2.65486
H         41.30431         1.62529        -1.65396
H         42.66661         3.75722        -1.40522
H         42.73967         6.10526        -0.83667
H         42.83169         8.04227        -0.73956
H         42.94200        10.26554         0.17439
H         42.73929        12.11454        -0.74326
H         42.68816        14.48031        -1.36362
H         42.57837        16.29920        -2.07213
H         40.18626        19.73926        -3.07946
H         42.39151        18.59241        -2.95436
