         429
 CSIRO Nanostructure Databank - Neutral Graphene Oxide Data Set
C          1.59020         2.73666         2.63729
C          1.54107         4.05048         2.24621
C          2.75451         1.95053         2.47649
C          2.70258         4.74848         1.61681
C          1.09644         6.36515         0.50471
C          1.14967         7.71259         0.74457
C          2.28887         5.50025         0.29215
C          2.35963         8.46322         0.65812
C          1.26315        10.59419         1.40387
C          1.29475        11.96297         1.57927
C          2.39404         9.89146         0.89907
C          2.47388        12.71342         1.33880
C          1.29639        14.91686         1.59121
C          1.30039        16.29522         1.54233
C          2.49626        14.16162         1.42655
C          2.51197        17.01451         1.37110
C          2.53843        18.43982         1.29810
C          3.89653         2.48097         1.83500
C          3.86089         3.82356         1.32796
C          5.08509         1.72728         1.69173
C          4.95068         4.32250         0.62247
C          3.52090         6.32720        -0.23253
C          3.55245         7.78658         0.22858
C          4.85792         5.66817         0.08273
C          4.70609         8.48910        -0.02529
C          3.57989        10.62635         0.67097
C          3.65052        12.01159         0.94956
C          4.75869         9.98644        -0.01243
C          4.91401        12.71419         0.83335
C          3.71981        14.85010         1.27249
C          3.73941        16.28821         1.28468
C          4.94914        14.12532         1.02887
C          4.95929        16.99331         1.17916
C          3.72266        19.11482         1.13241
C          4.97026        18.40924         1.07583
C          6.24106         2.21951         1.04695
C          6.17559         3.56498         0.47576
C          7.43890         1.44604         1.19802
C          7.29627         4.27024        -0.00670
C          5.98776         6.36134        -0.26174
C          5.87421         7.80576        -0.69793
C          7.27237         5.70713        -0.20447
C          7.18374         8.55589        -0.55891
C          6.08956        10.50261         0.56180
C          6.12565        12.01134         0.59997
C          7.27539         9.87776        -0.15675
C          7.35363        12.68256         0.52847
C          6.18227        14.80758         0.96389
C          6.25089        16.25276         1.37606
C          7.39200        14.10848         0.71378
C          7.45267        16.97280         0.84089
C          6.19344        19.09612         0.89209
C          7.42210        18.39359         0.72385
C          8.61446         1.65575         0.45594
C          8.52313         3.63258        -0.36322
C          9.95696         1.39638         0.76318
C          9.76582         4.24332        -0.32168
C          8.45277         6.37965        -0.44203
C          8.41232         7.78999        -0.87835
C          9.77107         5.73592        -0.09942
C          9.69120         8.51976        -1.09031
C          8.49844        10.61606        -0.25991
C          8.57346        11.97584         0.13987
C          9.65021        10.04907        -1.07699
C          9.80599        12.67404         0.08487
C          8.62660        14.81660         0.64338
C          8.64606        16.24629         0.62654
C          9.91473        14.04842         0.69660
C          9.86757        16.95801         0.37368
C          8.61701        19.07850         0.40942
C          9.83832        18.38365         0.25561
C         11.05700         2.12580         0.19494
C         10.99852         3.50753        -0.26762
C         12.33059         1.52367         0.31126
C         12.21589         4.22936        -0.48433
C         10.99114         6.40358        -0.68267
C         10.97796         7.79086        -0.91006
C         12.20013         5.66618        -0.73587
C         12.18687         8.49951        -1.05925
C         10.98310        10.66929        -0.74575
C         11.00929        12.02482        -0.33602
C         12.17928         9.94671        -0.98677
C         12.26236        12.72889        -0.32418
C         11.12123        14.83717         0.24037
C         11.10779        16.25139         0.21875
C         12.32366        14.14657        -0.04589
C         12.32848        16.97834         0.00855
C         11.03682        19.08099        -0.04570
C         12.27042        18.41802        -0.16422
C         13.51304         2.17644        -0.06049
C         13.46864         3.55609        -0.45807
C         14.77288         1.50582         0.02816
C         14.68951         4.22225        -0.79488
C         13.41835         6.36065        -0.98547
C         13.41840         7.78253        -1.09756
C         14.67024         5.65292        -1.06654
C         14.65333         8.49574        -1.23019
C         13.41288        10.63586        -1.02201
C         13.41919        12.04120        -0.76458
C         14.65039         9.91950        -1.22762
C         14.64439        12.75063        -0.85269
C         13.57158        14.85551        -0.07727
C         13.57810        16.30487        -0.01165
C         14.73703        14.05134        -0.35675
C         14.76878        17.14153        -0.15266
C         13.43881        19.16254        -0.47078
C         14.70703        18.55185        -0.48463
C         15.94545         2.14452        -0.30773
C         15.91107         3.50691        -0.75765
C         17.28055         1.45664        -0.09770
C         17.15553         4.16646        -1.07205
C         15.85417         6.35234        -1.31247
C         15.88909         7.79124        -1.36975
C         17.11958         5.58571        -1.59252
C         17.10890         8.52199        -1.49345
C         15.87033        10.61598        -1.38107
C         15.83073        12.08127        -1.41972
C         17.11489         9.93732        -1.47740
C         17.12990        12.84203        -1.54422
C         16.07601        14.55128        -0.18167
C         16.05952        16.66824         0.05789
C         17.16589        14.17415        -0.90277
C         17.25306        17.25622        -0.43060
C         15.91236        19.29174        -0.65103
C         17.19563        18.68127        -0.64653
C         18.33822         1.97403        -1.08767
C         18.36041         3.48870        -1.09486
C         19.68812         1.34206        -0.88963
C         19.62042         4.20894        -1.20096
C         18.33233         6.37625        -1.11994
C         18.39759         7.77433        -1.76654
C         19.61479         5.59095        -1.26259
C         19.65707         8.50934        -1.34610
C         18.36737        10.70098        -1.41677
C         18.39516        12.07888        -1.43262
C         19.59624         9.96036        -0.94006
C         19.62889        12.85174        -1.22345
C         18.35208        15.04957        -1.22197
C         18.42777        16.48671        -0.67954
C         19.62677        14.25043        -1.13674
C         19.64216        17.18759        -0.83974
C         18.42880        19.35922        -0.76747
C         19.65237        18.63962        -0.74663
C         20.87278         2.01654        -1.04240
C         20.88313         3.47487        -1.20606
C         22.14314         1.33717        -0.90452
C         22.08618         4.13808        -1.31463
C         20.84867         6.35846        -1.09362
C         20.82951         7.83428        -1.26954
C         22.16191         5.59239        -1.14698
C         22.14807         8.55362        -1.45387
C         20.90544        10.71010        -1.07345
C         20.86180        12.11675        -1.09124
C         22.13209         9.99959        -1.00577
C         22.09429        12.86514        -0.80263
C         20.86193        15.03845        -1.29867
C         20.88046        16.49353        -1.05454
C         22.18319        14.29427        -1.20088
C         22.11450        17.16332        -0.96037
C         20.88930        19.31104        -0.72387
C         22.13502        18.62046        -0.79343
C         23.35681         1.97619        -1.09551
C         23.35261         3.39679        -1.52323
C         24.61334         1.34971        -0.85756
C         24.64581         4.13601        -1.70063
C         23.39253         6.33144        -1.39365
C         23.36605         7.75180        -1.01196
C         24.64538         5.64266        -1.65496
C         24.65811         8.50287        -0.85881
C         23.39276        10.65911        -0.83309
C         23.39454        12.12114        -0.59259
C         24.60920         9.97394        -0.88715
C         24.63664        12.90257        -0.72266
C         23.40961        15.05005        -0.89766
C         23.35565        16.44089        -0.88995
C         24.63833        14.29068        -0.74323
C         24.59522        17.21625        -0.49998
C         23.33101        19.32840        -0.74591
C         24.63975        18.65169        -1.05864
C         25.84065         2.01403        -0.93892
C         25.98982         3.40475        -1.54958
C         27.03732         1.33490        -0.63351
C         27.09144         4.22293        -0.89589
C         25.96024         6.37685        -1.36133
C         25.94831         7.79303        -0.96502
C         27.15006         5.58792        -0.96125
C         27.15997         8.44983        -0.80808
C         25.89520        10.66939        -0.68994
C         25.90756        12.16488        -0.62059
C         27.16598         9.92463        -0.98799
C         27.16664        12.91245        -0.90225
C         25.90374        15.00915        -0.67584
C         25.87202        16.46911        -0.81584
C         27.12608        14.36605        -0.62497
C         27.15986        17.23387        -0.62470
C         25.88317        19.35827        -0.54309
C         27.07979        18.70019        -0.35193
C         28.26722         2.01279        -0.49205
C         28.24172         3.50428        -0.24378
C         29.46429         1.32724        -0.32734
C         29.57258         4.19587        -0.46030
C         28.38996         6.32456        -0.70291
C         28.41163         7.74454        -0.76291
C         29.60644         5.59252        -0.58748
C         29.65963         8.48035        -0.58860
C         28.47362        10.66122        -1.01149
C         28.46136        12.17976        -1.00679
C         29.68805         9.91985        -0.58222
C         29.70669        12.91072        -0.61551
C         28.35398        15.06771        -0.33321
C         28.32086        16.45809        -0.18403
C         29.58348        14.32323        -0.14043
C         29.43239        17.19091         0.40752
C         28.30603        19.36631        -0.01281
C         29.49388        18.66552         0.25125
C         30.69984         2.01186        -0.10462
C         30.75875         3.45021        -0.24138
C         31.87170         1.30053         0.16757
C         31.99530         4.13401        -0.01827
C         30.89880         6.33133        -0.89286
C         30.86868         7.77488        -0.41803
C         32.21491         5.54347        -0.54587
C         32.06214         8.46573        -0.05553
C         30.84963        10.60858        -0.23253
C         30.91424        12.09844        -0.25515
C         32.04453         9.89420         0.10450
C         31.87349        12.77989         0.72127
C         30.73273        14.96785         0.28972
C         30.72539        16.40042         0.62615
C         31.98671        14.25825         0.38486
C         31.98913        17.13701         0.55162
C         30.74498        19.29394         0.41479
C         31.97070        18.57067         0.51276
C         33.08107         1.98689         0.45611
C         33.08462         3.42608         0.46801
C         34.29590         1.29327         0.56363
C         34.24275         4.13296         1.12164
C         33.25328         6.30689         0.25854
C         33.26308         7.75297         0.25020
C         34.31018         5.61281         0.80272
C         34.43958         8.47053         0.61926
C         33.22604        10.58538         0.49396
C         33.23878        12.04288         0.91922
C         34.44014         9.90178         0.66961
C         34.47358        12.71418         0.33305
C         33.17672        14.96178         0.41941
C         33.19161        16.41092         0.44764
C         34.45299        14.24548         0.19365
C         34.43629        17.10384         0.44147
C         33.21195        19.24578         0.41752
C         34.43085        18.54451         0.38043
C         35.54903         1.96353         0.71150
C         35.56472         3.40348         0.96107
C         36.73110         1.25356         0.53868
C         36.74697         4.07437         1.12800
C         35.50240         6.33746         1.25617
C         35.61768         7.77758         1.00759
C         36.79490         5.53300         1.39445
C         36.85270         8.45309         1.19236
C         35.69688        10.61759         0.89160
C         35.73343        12.01526         0.63899
C         36.89683         9.87661         1.10712
C         37.00530        12.73616         0.46948
C         35.70310        14.99548         0.34767
C         35.66718        16.37741         0.48392
C         36.97990        14.25801         0.28827
C         36.92654        17.16056         0.75624
C         35.65913        19.23866         0.17799
C         36.89143        18.57575         0.22002
C         38.02645         1.84906         0.84790
C         38.02921         3.35070         1.17420
C         39.28807         1.27281         0.35860
C         39.28332         4.09981         1.00501
C         38.06581         6.26450         1.27213
C         38.07718         7.66584         1.30519
C         39.29167         5.51567         1.15227
C         39.33622         8.34180         1.49837
C         38.22525        10.57100         1.18342
C         38.30244        12.06198         0.88857
C         39.34827         9.74610         1.74525
C         39.44654        12.98958         1.23539
C         38.23332        15.02970         0.48596
C         38.19885        16.41688         0.43587
C         39.46803        14.34548         0.75783
C         39.40815        17.16946         0.31004
C         38.09488        19.23961        -0.04033
C         39.35626        18.57905         0.04205
C         40.44077         1.98507         0.40786
C         40.47761         3.39165         0.76696
C         41.70559         4.10036         0.76575
C         40.53903         6.18606         1.24451
C         40.54243         7.58926         1.59511
C         41.73680         5.45263         1.04762
C         41.71613         8.20441         2.08751
C         40.49761        10.26625         2.34053
C         40.55514        12.60845         1.99994
C         41.66806         9.50893         2.54066
C         41.74712        13.36004         2.06031
C         40.66878        15.11832         0.81438
C         40.65931        16.50770         0.40059
C         41.83296        14.56613         1.39491
C         41.84424        17.25174         0.18812
C         40.56155        19.27951        -0.17199
C         41.78675        18.61265        -0.10767
O          8.95527         7.98284        -2.25923
O         37.10937        13.35725        -0.86207
O         34.38597        13.33431        -0.96867
O         22.58521        12.58749         0.55310
O         26.65318        16.90917        -1.97866
O         32.93382         5.31519        -1.75326
O         25.98476        11.36012         0.62082
O         30.82457        12.70983        -1.56811
O         40.49911        11.54328         2.89712
O         31.20028        12.79310         1.96463
O         16.29414        12.65798        -2.72486
O         16.23262        15.51392         0.81589
O         25.47176         6.21323        -2.73791
O         21.54726         6.01630         0.16269
O         27.84719        10.19044        -2.25422
O          3.40375         6.36066        -1.63511
O          8.43014         2.30644        -0.78507
O         27.79614        12.68612        -2.21000
O         29.84313        16.75295         1.74393
O         38.10234         2.34702         2.23563
O         21.61686        14.59949        -2.50121
O         23.92407         3.63138        -2.87922
O         38.66098        11.07972        -0.14964
O         23.86743         7.99817         0.33719
O         36.01685         5.92197         2.58272
O         17.86823         1.55330        -2.40752
H         18.52857         1.84932        -3.06883
O         24.71032        18.62566        -2.50779
H         25.51116        18.09523        -2.74800
O         24.54855        17.36263         0.94909
H         24.43879        16.47392         1.34855
O         10.15851        13.80596         2.15161
H         10.13721        14.68005         2.59801
O          1.97370         4.50790        -0.68475
H          2.34017         4.89022        -1.52816
O         18.55116         7.67602        -3.20654
H         17.93848         6.97042        -3.53048
O         18.14774         6.57459         0.30373
H         18.90455         7.09898         0.64384
O          5.53934         7.83913        -2.12513
H          4.71515         7.24866        -2.20523
O         36.96243        17.31195         2.22307
H         37.72011        17.89653         2.43860
O         17.19603         5.42823        -3.05209
H         16.41153         4.91206        -3.33571
O          9.91740         5.93760         1.36373
H         10.74091         5.47719         1.63520
O         19.38242         9.86861         0.52535
H         20.25930         9.74180         0.94941
O          9.36168        10.49391        -2.43963
H          8.90290         9.73585        -2.88055
O         18.17492        15.32765        -2.66356
H         18.02078        14.47284        -3.12270
O          6.14905        10.03440         1.93941
H          6.95029        10.41481         2.35685
O         33.94835         4.07071         2.56178
H         34.65927         4.59180         3.01070
O         30.85229         6.45322        -2.33886
H         31.71573         6.03905        -2.64525
O         22.32124         8.59666        -2.91167
H         21.50978         8.97670        -3.31198
O          3.15447         5.81194         2.50625
H          3.42637         5.40126         3.35353
O         27.98683         3.62777         1.20811
H         28.73651         3.19974         1.67495
O         33.49948        12.03085         2.34242
H         32.60548        12.26338         2.74219
O         17.71265         1.68967         1.24975
H         17.77115         2.65759         1.39068
O         26.48872         3.16466        -2.89493
H         25.70560         3.15210        -3.49280
O          6.45265        16.22125         2.85751
H          5.65679        15.79439         3.24225
O          4.69623        10.38182        -1.41504
H          4.96998         9.60047        -1.96590
H          0.70911         2.28278         3.11461
H          0.63031         4.63977         2.43083
H          2.76995         0.91496         2.84418
H          0.10876         5.88778         0.40146
H          0.20323         8.24774         0.91118
H          0.33576        10.05305         1.63420
H          0.38479        12.46831         1.92950
H          0.33783        14.39575         1.71557
H          0.35577        16.85094         1.63138
H          1.58949        18.99166         1.36401
H          5.11295         0.71275         2.11779
H          3.73106        20.21189         1.05787
H          7.45269         0.69916         2.00714
H          6.18937        20.19272         0.80839
H         10.19901         0.63211         1.51799
H          8.60288        20.17303         0.30106
H         12.39251         0.48952         0.68171
H         10.99937        20.17243        -0.17753
H         14.79380         0.46305         0.37826
H         13.34976        20.24448        -0.64801
H         17.16594         0.35182        -0.22057
H         15.84211        20.38051        -0.79002
H         19.70951         0.25452        -0.71794
H         18.45076        20.45547        -0.85383
H         22.13266         0.27517        -0.61574
H         20.89946        20.40998        -0.66310
H         24.60918         0.30585        -0.50527
H         23.30263        20.42391        -0.63350
H         27.01063         0.24327        -0.48339
H         25.84624        20.45083        -0.40668
H         29.47456         0.22796        -0.38515
H         28.31960        20.46704         0.00061
H         31.85707         0.20075         0.17339
H         30.79767        20.39095         0.33886
H         34.29921         0.19903         0.44487
H         33.22312        20.34333         0.34188
H         36.69254         0.21227         0.18396
H         35.63137        20.31635        -0.04497
H         39.27887         0.24649        -0.03708
H         38.07133        20.30251        -0.32588
H         41.38453         1.52117         0.08440
H         42.63995         3.55624         0.56718
H         42.70516         5.97011         1.07717
H         42.64313         7.62623         2.19288
H         42.53759         9.97878         3.01747
H         42.59069        12.97269         2.64571
H         42.76501        15.14488         1.43238
H         42.82327        16.75551         0.23078
H         40.52849        20.35525        -0.39556
H         42.71791        19.16811        -0.28643
