         232
 CSIRO Nanostructure Databank - Neutral Graphene Oxide Data Set
C        -11.01124         0.79536         0.28746
C         -9.93916         1.46252        -0.56356
C         -8.58022         0.83114        -0.19733
C         -7.40465         1.47850        -0.88546
C         -6.26679         0.73992        -1.17655
C         -5.04546         1.41524        -1.55438
C         -3.87121         0.73005        -1.82234
C         -2.63442         1.48887        -1.80872
C         -1.43651         1.04736        -2.36587
C         -0.13862         1.50388        -2.07823
C          0.94471         0.60706        -2.46829
C          2.83402         1.70422        -1.88587
C          3.82325         0.83560        -1.48167
C          5.08824         1.51091        -1.09376
C          6.25836         0.69836        -0.63809
C          7.47233         1.37661        -0.04481
C          8.38235         0.60086         0.81335
C          9.41327         1.22493         1.50165
C         10.46811         0.40864         2.08664
C         -9.83362         2.95252        -0.35190
C         -8.65661         3.62428        -0.55308
C         -7.41311         2.92764        -0.92044
C         -6.27052         3.64174        -1.19948
C         -5.00768         2.92796        -1.68440
C         -3.74811         3.47830        -1.01502
C         -2.54290         2.74328        -1.10564
C         -1.21423         3.25459        -0.80036
C          0.00964         2.73377        -1.33628
C          1.24274         3.47280        -1.05858
C          2.56567         3.01034        -1.29062
C          3.72907         3.68852        -0.76165
C          5.05395         3.01390        -0.87152
C          6.25147         3.67883        -0.23917
C          7.49479         2.87191         0.10667
C          8.45924         3.45975         1.07267
C          9.45389         2.65339         1.62157
C         -8.59259         5.05566        -0.35752
C         -7.48800         5.83134        -0.62369
C         -6.27297         5.13254        -1.15580
C         -4.87515         5.75465        -0.98973
C         -3.79215         4.83728        -0.57320
C         -2.96723         5.28961         0.42974
C         -1.10579         4.30060         0.17853
C         -0.13070         5.26846         0.20878
C          1.10525         4.86634        -0.51429
C          2.36854         5.62719        -0.09829
C          3.65543         4.93293        -0.14299
C          4.81469         5.59414         0.43079
C          6.06531         4.97148         0.43709
C          7.20681         5.59592         1.05114
C          8.36342         4.84588         1.34688
C         -7.53963         7.20138        -0.10794
C         -6.61604         8.20009        -0.25117
C         -4.73080         7.13864        -0.52325
C         -3.92959         7.57777         0.49219
C         -2.87188         6.65138         0.96504
C         -1.54193         7.18914         1.45565
C         -0.17213         6.41959         1.26227
C          1.00269         7.37572         1.06890
C          2.23931         6.86389         0.71123
C          3.44992         7.59476         0.97345
C          4.70001         6.94750         0.90946
C          5.88509         7.64099         1.34595
C          7.09412         6.96007         1.44739
C         -6.41741         9.38763         0.57178
C         -5.17657         9.75489         1.00308
C         -3.94281         8.96071         0.97923
C         -2.80585         9.45249         1.55757
C         -1.54522         8.67821         1.89678
C         -0.30171         9.42815         1.54384
C          0.91400         8.78847         1.38821
C          2.11872         9.56553         1.47400
C          3.36549         8.96760         1.39224
C          4.58198         9.67784         1.70757
C          5.78140         9.03370         1.71370
C        -10.93971        -0.50088         0.64085
C         -9.80628        -1.37029         0.22076
C         -8.60754        -0.67153        -0.32733
C         -7.28648        -1.33755        -0.31178
C         -6.20332        -0.68434        -0.82382
C         -4.83286        -1.33236        -0.80245
C         -3.95057        -0.80399        -1.96995
C         -2.62353        -1.57315        -1.98419
C         -1.44590        -1.12112        -2.53366
C         -0.11796        -1.62889        -2.19885
C          1.07107        -0.77049        -2.28316
C          2.45047        -1.39579        -2.08207
C          3.75826        -0.63939        -1.72952
C          4.79113        -1.42755        -0.92570
C          5.98137        -0.73754        -0.30666
C          7.16109        -1.53772         0.10805
C          8.15470        -0.87230         1.03139
C          9.44707        -1.63251         1.20246
C         10.52690        -0.93368         1.86527
C         -9.62758        -2.72548         0.79473
C         -8.41071        -3.33730         0.86628
C         -7.13137        -2.60777         0.48827
C         -6.08902        -3.52138        -0.11117
C         -4.89441        -2.85082        -0.69464
C         -3.79702        -3.60386        -0.96215
C         -2.64998        -3.01004        -1.68617
C         -1.31192        -3.73250        -1.74957
C         -0.07230        -2.94382        -1.77923
C          1.17717        -3.52174        -1.23794
C          2.45110        -2.78715        -1.47043
C          3.70484        -3.61407        -1.42386
C          4.89453        -2.89849        -1.07681
C          6.06331        -3.60958        -0.67893
C          7.19232        -2.89873        -0.08082
C          8.38528        -3.65741         0.29189
C          9.50740        -2.96019         0.88377
C         -8.23900        -4.63950         1.49782
C         -7.08383        -5.37458         1.37560
C         -6.04073        -4.93005         0.41892
C         -4.69148        -5.58055         0.52606
C         -3.62814        -4.91115        -0.27455
C         -2.37867        -5.68019        -0.46456
C         -1.22134        -5.05418        -1.11633
C         -0.05530        -5.73004        -1.12950
C          1.24981        -5.01455        -1.04157
C          2.40168        -5.75926        -1.72188
C          3.69280        -4.99977        -1.47578
C          5.01629        -5.73584        -1.53429
C          6.10410        -5.01534        -0.76843
C          7.27060        -5.75032        -0.35453
C          8.43168        -5.01600         0.08987
C         -6.78546        -6.55058         2.16455
C         -5.61191        -7.26107         2.10194
C         -4.56605        -7.06032         1.01371
C         -3.09452        -7.33377         1.50412
C         -2.07783        -6.64392         0.62316
C         -0.66130        -7.00622         1.03220
C          0.37429        -6.63857        -0.01515
C          1.37874        -7.66465        -0.41624
C          2.40048        -7.21162        -1.20844
C          3.62798        -8.02250        -1.28661
C          4.92030        -7.24895        -1.22583
C          5.93886        -7.83927        -0.26116
C          7.26164        -7.13793        -0.30247
C         -5.32047        -8.23741         3.13963
C         -4.05591        -8.51689         3.51731
C         -2.84932        -7.89695         2.89258
C         -2.30400        -8.71110         1.71186
C         -0.87630        -8.48862         1.28282
C          0.08514        -9.38075         0.92612
C          1.32396        -8.98434         0.22328
C          2.39854        -9.81163         0.08944
C          3.52563        -9.50061        -0.87224
C          4.86905       -10.07181        -0.46469
C          5.98353        -9.34480        -0.31054
O         -2.03198        -7.36937         3.88732
H         -1.26116        -6.89780         3.48981
O         -0.28638        -6.30760         2.23810
H          0.36600        -5.60855         1.99300
O         -4.65949        -1.10314        -3.18487
H         -4.11417        -0.80621        -3.94302
O          2.13579        -5.75772        -3.14298
H          2.90516        -6.16113        -3.59759
O          5.40295         2.46976        -2.17058
O         -4.18813        -0.91070         0.43056
H         -4.73177        -1.26834         1.17336
O          7.48693        -0.92681         2.35551
H          7.22048        -1.85811         2.51300
O         -4.88151         3.18849        -3.11602
H         -5.02007         4.15924        -3.24399
O        -10.23931         1.24047        -1.95570
H        -10.22212         0.26174        -2.09733
O          0.07779         5.77465         2.53400
H         -0.79090         5.44084         2.85694
O          7.45846         0.87363        -1.43703
O         -8.37045         1.05799         1.23588
H         -8.37124         2.02873         1.38354
O          5.44622        -5.63699        -2.93733
H          5.15445        -6.46677        -3.38325
O         -2.48378         6.54907         2.38750
O          2.05291         1.28388        -2.95442
O          1.71662         5.85160        -1.40591
O         -4.90032        -7.94204        -0.06369
H         -4.13949        -7.92227        -0.69466
O         -2.16750         4.36281         1.10657
O         -6.52424        -2.16552         1.75768
H         -7.13329        -1.51523         2.17007
O          3.16484       -10.21495        -2.09267
H          3.75727        -9.87435        -2.79925
O         -3.77360        -4.68334         1.21497
O          5.35600        -7.49477         1.05354
H          5.99003        -7.77856         1.74559
O         -5.50728         5.67661        -2.29515
O         -2.21139        -3.75110        -2.90097
O         -1.53068         8.67554         3.36368
H         -2.13798         7.95084         3.64146
O         -6.56134        -4.64359        -0.91755
O         -9.56394        -1.27270        -1.25787
O          1.26505        -5.45870         0.40295
O          1.79160        -2.75332        -0.14852
O          7.42502         3.64749        -1.11706
O          4.77879        -0.97509         0.49420
O          3.49430        -1.16633        -3.06406
O         -5.57296         8.03233        -1.18597
O          4.54780        -7.96077        -2.44521
O         -2.41687        -7.11135        -0.76448
O         -1.49747         0.03303        -3.32384
H         11.40177        -1.51440         2.19408
H         11.28556         0.92064         2.61471
H         10.23123         3.10837         2.25325
H          9.16378         5.32363         1.93195
H          7.97898         7.47532         1.84929
H          6.69987         9.56715         1.99881
H          4.51362        10.73834         1.99010
H          2.03503        10.63165         1.73153
H         -0.31100        10.51519         1.71542
H         -2.82390        10.47813         1.95980
H         -5.09999        10.69410         1.57491
H         -7.28541        10.00435         0.85317
H         -8.37995         7.39775         0.57670
H         -9.48885         5.54244         0.05766
H        -10.74254         3.52196        -0.10046
H        -11.88780         1.39297         0.58369
H        -11.74185        -0.95867         1.24091
H        -10.52272        -3.25197         1.16263
H         -9.06309        -5.02125         2.12100
H         -7.50518        -6.81304         2.95738
H         -6.16721        -8.65846         3.70425
H         -3.87346        -9.18024         4.37609
H         -2.77307        -9.68320         1.48478
H         -0.06881       -10.45941         1.08607
H          2.38992       -10.81201         0.54788
H          4.92632       -11.17100        -0.42424
H          6.94223        -9.84081        -0.08854
H          8.16586        -7.67713         0.02071
H          9.33439        -5.58028         0.36836
H         10.41903        -3.53819         1.10180
