         630
 CSIRO Nanostructure Databank - Neutral Graphene Oxide Data Set
C         23.22147        27.40623         1.65512
C         23.16489        28.75996         1.33671
C         23.10368        31.68722         0.94433
C         23.04380        33.03376         0.70331
C         22.93856        35.89866         0.04500
C         22.90460        37.24830         0.07655
C         22.87502        40.29634         0.22775
C         22.89262        41.62452         0.41352
C         22.96440        44.60616         1.18020
C         22.97413        45.94995         1.18979
C         25.69580        24.65285         2.10610
C         24.51802        25.28472         1.94199
C         25.61714        27.38351         1.23616
C         24.44985        26.70737         1.61117
C         25.57408        28.77174         0.88459
C         24.31669        29.47307         0.96040
C         25.43183        31.54899         0.22764
C         24.29901        30.90957         0.70936
C         25.36744        32.97182        -0.12448
C         24.17139        33.75782         0.20164
C         25.42895        35.88058        -0.07613
C         24.18392        35.15398         0.04166
C         25.43340        37.32101        -0.02795
C         24.14896        38.02087         0.25226
C         25.39294        40.26370         0.10514
C         24.13169        39.51514         0.35395
C         25.42006        41.63139         0.25194
C         24.16976        42.32028         0.71297
C         25.45383        44.51249         0.73203
C         24.19406        43.80394         0.95746
C         25.47905        45.92359         1.05375
C         24.20451        46.71339         0.77154
C         25.51476        48.79095         1.13519
C         24.32872        48.11850         1.27603
C         28.33078        23.23572         2.04814
C         28.24919        24.60500         1.74453
C         26.99311        25.42516         2.01371
C         28.13643        27.36523         0.95323
C         26.86184        26.55860         0.99138
C         28.06803        28.86681         0.97145
C         26.75530        29.43970         0.50843
C         27.96366        31.60639        -0.00571
C         26.68634        30.79043        -0.15208
C         27.94607        32.99330        -0.15183
C         26.68335        33.73963        -0.33015
C         27.89635        35.91901        -0.08068
C         26.66222        35.20055        -0.15068
C         27.88431        37.36761        -0.13697
C         26.61636        38.04147        -0.14448
C         27.87912        40.26566        -0.25058
C         26.57888        39.52705        -0.45852
C         27.86069        41.69309        -0.12152
C         26.64939        42.37129         0.09564
C         27.92205        44.57838         0.22588
C         26.59587        43.87868        -0.00412
C         27.97377        45.92374         0.48984
C         26.77949        46.69224         0.89850
C         27.94424        48.85650         0.42944
C         26.72778        48.14275         0.73498
C         27.96802        50.27426         0.37370
C         30.73503        23.21993         1.63021
C         29.53546        22.54859         1.95179
C         30.67332        24.61336         1.33739
C         29.41631        25.28556         1.33748
C         30.57629        27.43412         0.74231
C         29.34733        26.71527         1.02363
C         30.50767        28.82208         0.37179
C         29.28388        29.53100         0.38620
C         30.43744        31.63168        -0.17947
C         29.21873        30.90975         0.07618
C         30.40468        33.07486        -0.28637
C         29.15774        33.76210        -0.17609
C         30.38135        35.91431        -0.02253
C         29.11363        35.18710        -0.12305
C         30.37226        37.45550        -0.07085
C         29.08018        38.12317        -0.23864
C         30.34201        40.27938        -0.49894
C         29.09015        39.56072        -0.35405
C         30.34633        41.71456        -0.44150
C         29.11857        42.42978        -0.17858
C         30.37628        44.55925        -0.16487
C         29.13906        43.82338        -0.02104
C         30.39294        45.94112        -0.08919
C         29.27335        46.67429         0.58654
C         30.36663        48.88234         0.06599
C         29.17304        48.15697         0.25474
C         30.39000        50.28863         0.16871
C         29.16897        50.96837         0.32062
C         33.36578        20.52901         1.94855
C         32.13217        21.14478         1.85453
C         33.21700        23.29642         1.50832
C         32.01972        22.54230         1.65337
C         33.13961        24.70226         1.17800
C         31.88948        25.34365         1.07371
C         33.01078        27.45078         0.39778
C         31.80508        26.74804         0.74340
C         32.96065        28.83064         0.08341
C         31.71691        29.51625         0.02178
C         32.90667        31.64042        -0.52310
C         31.64550        30.91621        -0.25642
C         32.87702        33.12579        -0.66977
C         31.59187        33.82457        -0.50626
C         32.80213        35.98879        -0.62345
C         31.61381        35.22782        -0.41285
C         32.77067        37.41573        -0.71744
C         31.59992        38.13753        -0.51925
C         32.79429        40.25758        -0.91345
C         31.56542        39.56991        -0.69220
C         32.77732        41.74203        -1.13892
C         31.55716        42.43698        -0.59482
C         32.83647        44.55491        -0.51304
C         31.60052        43.83906        -0.45932
C         32.87194        45.95410        -0.55606
C         31.58743        46.68052        -0.51921
C         32.90499        48.86441        -0.31070
C         31.59946        48.17888        -0.37622
C         32.94122        50.25007        -0.08748
C         31.70979        51.00864         0.37099
C         32.93097        53.08021        -0.21740
C         31.75185        52.42904        -0.13324
C         35.99014        19.30593         2.43569
C         35.87640        20.64726         2.08784
C         34.57041        21.28176         1.90951
C         35.70834        23.52620         1.81107
C         34.47892        22.66438         1.67683
C         35.62968        24.76910         0.95347
C         34.35484        25.40340         0.81931
C         35.41083        27.37641        -0.25257
C         34.24224        26.73321         0.35102
C         35.43680        28.82735        -0.43431
C         34.25183        29.62392         0.02001
C         35.13954        31.25169        -1.63329
C         34.08561        30.81775        -0.86994
C         35.14758        33.36805        -1.77543
C         34.02144        33.92708        -1.15318
C         35.27137        36.00778        -1.06652
C         34.02638        35.31442        -0.91277
C         35.28082        37.38647        -1.12316
C         33.96734        38.09778        -1.33952
C         35.25897        40.25731        -1.12757
C         34.01419        39.57475        -1.06100
C         35.27600        41.70167        -0.95367
C         34.08998        42.39040        -0.79170
C         35.35232        44.56536        -0.71814
C         34.12016        43.80382        -0.29743
C         35.32710        45.96792        -0.73454
C         34.09750        46.68457        -0.65103
C         35.32159        48.85473        -0.67592
C         34.09618        48.13992        -0.59587
C         35.37226        50.21904        -0.38152
C         34.17792        50.93916        -0.11505
C         35.40693        53.09560         0.02865
C         34.20402        52.39598        -0.03217
C         35.46842        54.53233         0.05070
C         38.43462        19.34556         2.31886
C         37.23845        18.67218         2.57562
C         38.38401        20.73649         1.95009
C         37.09269        21.42528         1.89736
C         38.25614        23.64912         1.58509
C         37.01605        22.78321         1.65412
C         38.10657        24.80390         0.60965
C         36.82292        25.36441         0.47252
C         37.96042        27.50191        -0.28540
C         36.72098        26.63746        -0.27012
C         37.78414        28.69963        -1.18556
C         36.54074        29.45233        -0.99179
C         37.66194        31.59188        -1.76396
C         36.48725        30.78956        -1.49534
C         37.62502        33.05402        -1.76591
C         36.47258        33.83888        -1.61924
C         37.78042        35.96128        -1.30791
C         36.54351        35.19846        -0.94231
C         37.75028        37.39402        -1.25866
C         36.51756        38.10881        -1.18967
C         37.73816        40.24702        -1.22888
C         36.49570        39.53981        -1.19790
C         37.75194        41.67591        -1.18014
C         36.54367        42.41540        -0.98535
C         37.76649        44.56926        -1.26429
C         36.55338        43.83414        -0.93763
C         37.79726        45.93925        -1.26632
C         36.63931        46.72010        -0.67264
C         37.82909        48.89596        -1.09186
C         36.52563        48.14033        -1.24761
C         37.89264        50.21653        -0.72381
C         36.70274        50.83903        -0.01133
C         37.92703        53.15086        -0.36818
C         36.70156        52.37005         0.02300
C         37.88073        54.63699        -0.47977
C         36.61945        55.24818        -0.14646
C         41.08848        16.78438         3.13619
C         39.86285        17.39614         3.02582
C         40.87569        19.32945         1.92712
C         39.72727        18.68730         2.42658
C         40.80424        20.70172         1.46572
C         39.57066        21.41429         1.64407
C         40.69819        23.45516         0.61174
C         39.56156        22.87270         1.41568
C         40.47296        24.67090        -0.17951
C         39.26206        25.37788        -0.06357
C         40.31364        27.40605        -1.05623
C         39.19397        26.71474        -0.59226
C         40.30364        28.80431        -1.36234
C         39.00868        29.47536        -1.58917
C         40.18348        31.65532        -1.66350
C         38.92938        30.93807        -1.73444
C         40.17988        33.04209        -1.58835
C         38.93937        33.80303        -1.96624
C         40.21026        35.95366        -1.52048
C         38.95360        35.25562        -1.52299
C         40.20701        37.38352        -1.44868
C         38.97931        38.10407        -1.37085
C         40.21183        40.22992        -1.33062
C         38.96919        39.53074        -1.33086
C         40.21699        41.65861        -1.35632
C         38.99119        42.35540        -1.34869
C         40.33095        44.53702        -1.57473
C         38.97872        43.79612        -1.60424
C         40.33457        45.99283        -1.41833
C         39.04420        46.67346        -1.60435
C         40.35140        48.84738        -1.25918
C         39.05461        48.19268        -1.50544
C         40.32120        50.27993        -1.18289
C         39.13463        50.94764        -0.89261
C         40.31413        53.21791        -1.30740
C         39.07796        52.42869        -0.98789
C         40.34018        54.73885        -1.19499
C         39.05248        55.35564        -0.65476
C         40.30823        57.42827        -0.23186
C         39.13213        56.78344        -0.40258
C         43.52840        16.75955         2.63957
C         42.25740        17.38975         2.58620
C         43.27804        19.22383         1.30629
C         42.14169        18.65296         1.94237
C         43.06799        20.41953         0.41599
C         41.91408        21.29102         0.83620
C         42.96951        23.17692        -0.34694
C         41.87259        22.61252         0.29850
C         42.85338        24.38761        -1.23844
C         41.53776        25.15037        -1.06972
C         42.78803        27.37120        -1.58174
C         41.52344        26.64340        -1.38774
C         42.74237        28.75166        -1.70289
C         41.49578        29.49695        -1.63384
C         42.65356        31.67912        -1.87518
C         41.45457        30.93202        -1.71799
C         42.69553        33.07201        -1.69619
C         41.44336        33.76914        -1.21073
C         42.67050        35.94499        -1.46133
C         41.43611        35.24964        -1.50388
C         42.67674        37.36944        -1.37946
C         41.44464        38.08572        -1.38687
C         42.66380        40.21195        -1.08557
C         41.43738        39.50986        -1.30438
C         42.64513        41.61027        -0.94369
C         41.46914        42.36158        -1.20769
C         42.71972        44.50129        -0.91029
C         41.51716        43.77737        -1.20858
C         42.74839        45.93094        -0.94697
C         41.52757        46.67723        -1.19573
C         42.80578        48.82630        -0.94748
C         41.54542        48.12588        -1.15342
C         42.83490        50.21705        -1.02400
C         41.61471        50.97079        -1.35649
C         42.76934        53.12668        -0.64645
C         41.63959        52.50806        -1.33712
C         42.63571        54.44657        -0.14444
C         41.54135        55.25623        -0.44772
C         42.65176        57.23227         0.63199
C         41.65418        56.76226        -0.39348
C         44.62789        17.33933         2.04103
C         45.66606        19.15936         0.63307
C         44.51655        18.56770         1.32926
C         45.56931        20.48913         0.11442
C         44.33006        21.19094         0.13275
C         45.41155        23.19372        -0.82593
C         44.24084        22.49878        -0.36046
C         45.35618        24.57933        -1.22333
C         44.09917        25.27123        -1.26112
C         45.27621        27.37309        -1.78538
C         44.04893        26.64026        -1.56847
C         45.26531        28.77723        -2.04090
C         43.95549        29.46508        -2.15153
C         45.16069        31.73917        -2.37918
C         43.87937        30.96663        -2.30273
C         45.17467        33.14903        -1.94209
C         43.92522        33.80958        -1.72000
C         45.15630        35.93523        -1.41996
C         43.92344        35.22569        -1.50636
C         45.15136        37.35489        -1.20930
C         43.91257        38.07570        -1.20182
C         45.12016        40.18149        -0.72852
C         43.89845        39.47770        -0.99519
C         45.11005        41.56721        -0.46970
C         43.81000        42.30053        -0.30658
C         45.10118        44.44592        -0.32692
C         43.89438        43.77446        -0.60092
C         45.14019        45.88027        -0.33560
C         43.96104        46.61724        -0.65227
C         45.22573        48.71418        -0.42143
C         44.01262        48.06035        -0.68269
C         45.34143        50.17184        -0.61442
C         44.11009        50.96170        -0.99826
C         45.17672        52.95271         0.18018
C         44.13746        52.49746        -0.82741
C         45.00377        54.23357         0.87596
C         43.69226        54.99153         0.75771
C         43.60849        56.42865         1.11432
C         47.95563        19.04537        -0.19647
C         46.87509        18.46950         0.47508
C         47.89728        20.36514        -0.67533
C         46.70918        21.12096        -0.46617
C         47.81723        23.14839        -1.36596
C         46.63953        22.49331        -0.87993
C         47.79084        24.53112        -1.69701
C         46.55037        25.25462        -1.58598
C         47.71599        27.38055        -2.09826
C         46.51485        26.67138        -1.83778
C         47.71732        28.78769        -2.18008
C         46.46815        29.48721        -2.18893
C         47.69049        31.71422        -2.07035
C         46.46238        30.96376        -2.37794
C         47.66597        33.09452        -1.87697
C         46.40411        33.82441        -1.79055
C         47.63687        35.93893        -1.34272
C         46.40315        35.23238        -1.50997
C         47.62443        37.35569        -1.05123
C         46.37366        38.05613        -0.99809
C         47.55978        40.14209        -0.38452
C         46.35908        39.45754        -0.71770
C         47.54305        41.53627        -0.05417
C         46.29892        42.26817        -0.13943
C         47.42947        44.38683         0.53272
C         46.26464        43.67983         0.01250
C         47.52267        45.84414         0.37071
C         46.36025        46.56440        -0.01306
C         47.61336        48.67175         0.26886
C         46.40395        47.99009        -0.05646
C         47.62631        50.11676         0.34994
C         46.49650        50.86489        -0.01030
C         47.54049        52.90777         0.91324
C         46.39944        52.26083         0.32460
C         47.41353        54.27105         1.34907
C         46.20942        54.90213         1.37278
C         50.01881        20.17862        -1.95988
C         48.99415        20.96806        -1.41556
C         50.11183        23.01022        -2.26491
C         48.98813        22.37940        -1.64903
C         50.18848        24.46291        -2.31819
C         48.99044        25.17919        -2.11605
C         50.23602        27.35958        -2.22145
C         48.95136        26.62863        -2.52819
C         50.19957        28.80610        -2.22553
C         48.98769        29.50170        -2.27074
C         50.23573        31.77955        -2.14168
C         48.95221        30.98935        -2.31803
C         50.15738        33.15401        -1.61711
C         48.90064        33.82694        -1.63470
C         50.14591        35.92799        -1.23835
C         48.86108        35.21947        -1.38757
C         50.12366        37.41149        -0.91761
C         48.81504        38.06527        -0.77024
C         50.01385        40.10531        -0.03304
C         48.79693        39.42973        -0.37970
C         49.98982        41.49407         0.27335
C         48.74536        42.18813         0.28287
C         49.98921        44.34223         0.75225
C         48.72955        43.59184         0.70704
C         49.97033        45.75812         0.83151
C         48.74745        46.50403         0.61803
C         50.00874        48.62022         0.90126
C         48.78698        47.93556         0.58833
C         50.01038        50.04917         1.02851
C         48.80665        50.78756         0.81575
C         49.97973        52.84202         1.44477
C         48.77067        52.19425         1.04870
C         50.99915        20.76118        -2.76253
C         52.98076        23.28552        -2.98373
C         51.03507        22.14909        -2.90153
C         52.73748        24.55776        -2.41201
C         51.44445        25.19807        -2.38802
C         52.75219        27.34852        -2.15323
C         51.41982        26.62327        -2.17877
C         52.67234        28.75735        -1.64478
C         51.50034        29.52562        -2.13309
C         52.61276        31.65889        -1.24377
C         51.51896        31.02700        -1.99545
C         52.54236        33.00575        -0.88133
C         51.33123        33.77230        -1.11455
C         52.47236        35.81897        -0.29857
C         51.34325        35.16669        -0.84392
C         52.46110        37.23577        -0.03127
C         51.30017        38.00435        -0.26223
C         52.42406        40.04243         0.53064
C         51.24332        39.37983         0.08507
C         52.40870        41.45272         0.75877
C         51.19981        42.18193         0.61923
C         52.41872        44.30029         1.07149
C         51.19899        43.61059         0.80217
C         52.41183        45.72013         1.19250
C         51.19761        46.45485         1.03272
C         52.42929        48.57636         1.40537
C         51.20566        47.88656         1.11815
C         52.43461        49.99400         1.53289
C         51.20840        50.73158         1.38243
C         51.15358        52.14193         1.57907
C         55.20352        23.13435        -2.04963
C         54.18190        22.59418        -2.83593
C         55.07766        24.42578        -1.51934
C         53.89054        25.18995        -1.80146
C         54.95579        27.21621        -0.89130
C         53.86439        26.56275        -1.52148
C         54.94601        28.62604        -0.69245
C         53.79488        29.38438        -1.14536
C         54.96565        31.48701        -0.28060
C         53.83951        30.86323        -1.05738
C         54.71880        32.82232         0.32124
C         53.63150        33.66071        -0.20023
C         54.77770        35.68123         0.68601
C         53.62177        35.03335         0.08646
C         54.78940        37.11293         0.84376
C         53.62573        37.87521         0.52424
C         54.79535        39.94557         1.20796
C         53.61712        39.28483         0.73792
C         54.80092        41.38219         1.35815
C         53.62124        42.12879         1.12822
C         54.82553        44.24056         1.59734
C         53.62831        43.55839         1.26203
C         54.82875        45.67506         1.69316
C         53.63347        46.41158         1.47301
C         54.86732        48.52326         1.83845
C         53.64486        47.83857         1.57874
C         54.84056        49.94157         1.94701
C         53.66843        50.64771         1.80932
C         57.26762        24.29096        -0.31794
C         56.14603        25.04558        -0.76266
C         57.16606        27.05817         0.22427
C         56.08104        26.42806        -0.45836
C         57.15128        28.46680         0.46320
C         56.03682        29.25871         0.00625
C         57.12868        31.28145         0.94004
C         56.02681        30.63942         0.29614
C         57.14309        32.69991         1.14624
C         55.89585        33.47706         1.01526
C         57.13641        35.58739         1.44760
C         55.91959        34.94329         1.05507
C         57.15399        37.00526         1.61670
C         55.95134        37.76934         1.35598
C         57.10304        39.87368         2.11373
C         55.93504        39.17975         1.53714
C         57.19717        41.33992         1.99476
C         56.01114        42.06910         1.70549
C         57.24400        44.14569         2.15390
C         56.02939        43.48974         1.80662
C         57.21363        45.59174         2.40683
C         56.02806        46.36970         2.02644
C         57.37093        48.43875         2.06952
C         56.08299        47.77617         2.02478
C         58.29603        24.88374         0.38073
C         59.35738        26.91172         1.32721
C         58.27865        26.27777         0.64904
C         59.34903        28.26889         1.53898
C         58.25990        29.08287         1.10385
C         59.42945        31.19802         1.75804
C         58.27999        30.51264         1.28709
C         59.45942        32.57342         1.85120
C         58.31020        33.35887         1.55570
C         59.49914        35.48725         2.03877
C         58.31834        34.81585         1.69220
C         59.52285        36.87199         2.18744
C         58.36616        37.63714         2.00709
C         59.63761        39.85439         2.28769
C         58.38720        39.08520         2.32236
C         59.63493        41.21077         2.31535
C         58.42252        41.99675         2.22093
C         59.70491        44.16638         2.31952
C         58.45498        43.43366         2.26930
C         59.76886        45.52363         2.33249
C         58.56448        46.33702         2.52041
C         58.54494        47.76605         2.19709
O         57.78078        45.97919         3.69960
O         37.68306        52.80145         1.04443
O         57.50120        39.39886         3.45124
O         55.00298        31.48362        -1.74477
O         35.91979        26.63950        -1.46235
O         38.95357        47.51079        -2.82139
O         51.89964        30.38189        -3.26944
O         31.36145        47.55417        -1.69968
O         30.51207        36.72960         1.19451
O         43.89709        54.13972         1.93052
O         49.65455        31.60168        -3.46487
O         45.86613        31.47190        -3.62913
O         41.13464        25.63011        -2.39510
O         34.91139        32.25777        -2.58518
O         50.39519        36.93393        -2.28513
O         24.18856        38.69813         1.58828
O         43.69491        30.10162        -3.46229
O         39.66590        44.14561        -2.83961
O         47.85568        43.88565         1.85278
O         26.24450        46.29259         2.24663
O         41.85320        51.78004        -2.57326
O         38.21888        28.64574        -2.55629
O         45.06439        50.54573        -2.03543
O         24.31585        42.79215         2.09313
O         51.99467        22.67996        -3.77570
O         54.79135        32.84551         1.78002
O         33.26538        32.49945         0.66810
O         39.38345        52.84799        -2.37255
O         25.89765        33.26192        -1.48497
O         40.63834        23.61363         2.10489
O         26.56303        30.54442        -1.60617
H         26.35411        31.42559        -2.00600
O         41.50280        33.69056         0.27354
H         42.30530        34.17987         0.55578
O         42.83878        23.79606        -2.57675
H         42.32528        24.41524        -3.14951
O         42.17007        57.18625        -1.69586
H         41.64589        56.69602        -2.37480
O         26.70161        25.93357        -0.31381
H         26.59881        26.64480        -0.98045
O         36.26897        48.03253        -2.66968
H         37.12061        47.77752        -3.10583
O         34.53513        30.07950         1.38664
H         34.11306        30.96361         1.50174
O         33.72963        37.99734        -2.80087
H         34.53930        38.32121        -3.25062
O         32.64633        41.90541        -2.61112
H         33.32008        41.32731        -3.02975
O         38.34375        24.31571         2.89992
H         39.31157        24.42109         3.07968
O         36.96609        46.88211         0.74223
H         36.92755        45.99902         1.16644
O         27.20538        26.08193         3.30129
H         27.33811        25.38647         3.97910
O         44.63083        53.06285        -2.08397
H         45.05096        52.31775        -2.58033
O         39.02047        33.91523        -3.44614
H         39.08585        33.00627        -3.81164
O         24.18127        46.78275        -0.69679
H         23.41767        47.33792        -0.95981
O         34.24298        43.68852         1.18278
H         34.14017        44.59094         1.55465
O         28.10135        29.21375         2.42241
H         27.68683        28.46731         2.91212
O         31.82745        51.10178         1.83629
H         32.69077        51.52394         2.03431
O         29.62594        46.65841         2.02666
H         28.79248        46.77405         2.53432
O         36.85872        50.41334         1.38016
H         37.43823        51.08080         1.81646
O         43.51303        42.23473         1.15732
H         44.29422        42.60776         1.62149
O         40.44633        55.23896        -2.57012
H         39.93419        54.61442        -3.13471
O         48.85498        26.59361        -4.00343
H         48.83427        27.52266        -4.31968
O         26.36387        39.55087        -1.93524
H         26.44943        40.48468        -2.22561
O         36.67895        34.87976         0.48759
H         36.63869        35.72194         0.98820
O         53.14560        27.49048        -3.56903
H         52.68994        28.28283        -3.93056
O         35.67390        23.99674         3.20780
H         36.58732        24.30435         3.42737
O         42.65770        19.85932        -0.89487
H         43.43084        19.37750        -1.25924
O         26.30428        44.12198        -1.45116
H         27.15146        44.03051        -1.93876
O         38.11095        28.05221         1.05907
H         38.18127        27.30313         1.68898
H         22.30500        26.87230         1.94386
H         22.19246        29.26788         1.38573
H         22.21340        31.18913         1.34976
H         22.11585        33.57408         0.93556
H         21.99521        35.33986        -0.03088
H         21.93974        37.77403         0.07048
H         21.92685        39.77450         0.03339
H         21.96217        42.20916         0.36657
H         22.05289        44.06046         1.46695
H         22.05380        46.50941         1.42093
H         25.70602        23.59191         2.39635
H         23.56949        24.74270         2.07649
H         25.53996        49.86595         1.36857
H         23.44444        48.63267         1.68158
H         27.43498        22.68217         2.36222
H         27.03085        50.83984         0.46413
H         29.54674        21.47523         2.18339
H         29.15292        52.06411         0.40069
H         33.39836        19.43979         2.08486
H         31.22867        20.52443         1.92796
H         32.94069        54.14403        -0.49452
H         30.81488        52.97515        -0.31351
H         35.09015        18.70409         2.61921
H         34.53988        55.09168         0.23079
H         37.25025        17.61208         2.86187
H         36.55521        56.34421        -0.11572
H         41.17599        15.80624         3.63101
H         38.97889        16.89547         3.44361
H         40.30725        58.50966        -0.02625
H         38.19781        57.34985        -0.27311
H         43.62730        15.79412         3.15663
H         42.60837        58.28707         0.94380
H         45.59841        16.82849         2.10207
H         44.31506        56.80838         1.86682
H         48.87061        18.45151        -0.32513
H         46.98132        17.44406         0.85388
H         48.29398        54.79967         1.73780
H         46.13042        55.91543         1.78840
H         50.01390        19.08913        -1.82492
H         49.99110        53.92597         1.61794
H         51.74055        20.14322        -3.28458
H         52.06041        52.69176         1.86256
H         56.12369        22.55419        -1.90343
H         54.30572        21.61699        -3.31976
H         55.76419        50.49235         2.16805
H         53.70058        51.74009         1.91245
H         57.31509        23.21228        -0.51846
H         57.40880        49.51871         1.87077
H         59.15064        24.28301         0.72370
H         60.20579        26.30205         1.66982
H         60.19837        28.72835         2.06138
H         60.33512        30.63673         2.02262
H         60.38623        33.05268         2.19126
H         60.42793        34.93101         2.21611
H         60.46112        37.35482         2.49119
H         60.59623        39.32001         2.22671
H         60.60240        41.72999         2.33555
H         60.64558        43.60626         2.23034
H         60.73516        46.03433         2.20610
H         59.50287        48.28892         2.05789
