         410
 CSIRO Nanostructure Databank - Neutral Graphene Oxide Data Set
C         28.13732        27.37166        -0.75024
C         28.00210        28.82323        -0.63276
C         27.07623        29.37834         0.28177
C         27.90647        31.63478        -0.14891
C         27.00773        30.74971         0.49313
C         27.92167        33.06391         0.08614
C         26.92377        33.74902         0.77121
C         28.03722        35.94456         0.56996
C         26.96764        35.14319         0.98331
C         28.09604        37.35665         0.78222
C         26.91199        38.09062         1.15281
C         28.10237        40.22423         0.92596
C         26.88077        39.44876         1.16043
C         28.18357        41.68462         1.31435
C         27.04135        42.40344         1.93642
C         28.41340        44.43467         2.01889
C         27.17389        43.70508         2.26629
C         28.44608        45.84276         2.12019
C         30.57382        27.09446        -1.65105
C         29.20351        26.64993        -1.15920
C         30.70128        28.58005        -1.80062
C         28.78755        29.71910        -1.37880
C         29.94091        31.90943        -1.56364
C         28.82630        31.10003        -1.10082
C         30.21945        33.13674        -1.02115
C         29.02459        33.84626        -0.50423
C         30.43688        35.97839        -0.31895
C         29.10865        35.32401        -0.24092
C         30.50405        37.34296         0.10571
C         29.31608        38.06465         0.54475
C         30.59452        40.18518         0.72250
C         29.36292        39.46895         0.74924
C         30.69887        41.56327         0.98957
C         29.54902        42.23588         1.69276
C         30.77854        44.44436         1.36777
C         29.57738        43.74427         1.64122
C         30.80660        45.86150         1.50414
C         29.61898        46.53582         1.87590
C         32.88576        24.53159         0.01914
C         31.73488        25.16778        -0.54067
C         32.75477        27.37497        -0.26550
C         31.68480        26.51238        -0.79132
C         32.91007        28.75483        -0.74525
C         31.81206        29.34467        -1.46255
C         32.90809        31.57462        -1.28409
C         31.88021        30.76104        -1.72905
C         32.82117        33.06939        -1.44897
C         31.50517        33.86208        -1.25069
C         32.84643        35.95600        -0.75262
C         31.57568        35.28705        -0.77015
C         32.90727        37.34752        -0.39109
C         31.73887        38.01637         0.04121
C         33.11469        40.17673         0.31878
C         31.82362        39.40383         0.52676
C         33.08073        41.64166         0.31858
C         31.91521        42.30123         0.77241
C         33.15317        44.44482         0.65605
C         31.96059        43.73288         0.93616
C         33.22327        45.86671         0.90111
C         32.05825        46.57099         1.31346
C         33.36824        48.61375         1.49105
C         32.15164        47.95872         1.56292
C         35.35221        23.10268         0.60214
C         35.30901        24.51514         0.57765
C         34.04319        25.21255         0.33123
C         35.26243        27.46007         0.34367
C         34.00952        26.68724         0.34100
C         35.24655        28.82541         0.05138
C         34.05802        29.50832        -0.46173
C         35.26873        31.68612        -0.48341
C         34.08220        30.93117        -0.72838
C         35.30638        33.08822        -0.73435
C         34.16011        33.80737        -1.42789
C         35.28557        35.95793        -0.97400
C         34.06256        35.26173        -0.99998
C         35.32570        37.38133        -0.87180
C         34.14055        38.08075        -0.53147
C         35.39133        40.21694        -0.64770
C         34.22381        39.48164        -0.33295
C         35.42460        41.64141        -0.48535
C         34.26021        42.35189        -0.03511
C         35.50995        44.47900        -0.16808
C         34.30805        43.76461         0.14851
C         35.62005        45.88300         0.18744
C         34.46880        46.55589         0.77309
C         35.85596        48.60093         1.22072
C         34.54340        47.92407         1.13574
C         35.97183        50.06098         1.32594
C         37.75758        23.10980         0.90587
C         36.53875        22.41365         0.79561
C         37.73199        24.52762         0.87776
C         36.51632        25.23995         0.74836
C         37.75005        27.49448         0.86226
C         36.42777        26.74069         1.03671
C         37.72321        28.93397         0.47734
C         36.45162        29.62462         0.15068
C         37.72074        31.78823         0.26370
C         36.46829        30.98801        -0.06701
C         37.75173        33.15294        -0.36947
C         36.51663        33.81454        -0.66328
C         37.72622        35.95044        -0.99902
C         36.52688        35.23231        -0.95268
C         37.75817        37.36457        -1.19021
C         36.54473        38.09502        -1.05382
C         37.78453        40.22940        -1.30734
C         36.57400        39.51960        -1.04139
C         37.80242        41.65513        -1.21200
C         36.61715        42.35331        -0.79060
C         37.80389        44.51044        -1.16184
C         36.62451        43.77663        -0.67966
C         37.88994        46.00708        -0.83735
C         36.81762        46.57013        -0.01361
C         38.24174        48.67063         0.22034
C         37.06673        47.87099         0.62243
C         38.33080        50.01929         0.61152
C         37.15987        50.68895         1.13535
C         40.28185        20.36398         1.62212
C         39.09756        21.04854         1.49667
C         40.22207        23.05450         0.66385
C         39.02923        22.38519         0.98458
C         40.27467        24.47412         0.53569
C         39.03942        25.23125         0.89211
C         40.19701        27.31673         0.01735
C         39.03728        26.71367         0.75005
C         40.21662        28.80386        -0.16988
C         38.96313        29.58475        -0.04100
C         40.23752        31.69081        -0.15061
C         39.03022        31.05367         0.05529
C         40.24109        33.12522        -0.42744
C         38.97163        33.80058        -0.53123
C         40.26570        35.94091        -1.15611
C         38.98420        35.25209        -0.74431
C         40.18707        37.30225        -1.74467
C         38.96155        38.06817        -1.48275
C         40.24364        40.15881        -1.70644
C         38.97979        39.47351        -1.58753
C         40.21703        41.63292        -1.87055
C         39.01121        42.38826        -1.48801
C         40.30240        44.52314        -1.55998
C         39.06133        43.78404        -1.41921
C         40.34528        45.97066        -1.33809
C         39.21669        46.66376        -0.87479
C         40.48476        48.78417        -0.79844
C         39.31071        48.03438        -0.48149
C         40.55459        50.14779        -0.43225
C         39.52890        50.76848         0.32169
C         40.88714        52.81528         0.49504
C         39.72756        52.10669         0.78003
C         42.81944        20.25701         1.21827
C         41.48201        20.81288         0.93685
C         42.72401        23.01427         0.28886
C         41.45257        22.30593         0.42825
C         42.73872        24.40617         0.19306
C         41.48296        25.11888         0.28031
C         42.75707        27.27783        -0.19586
C         41.47925        26.54824        -0.09643
C         42.69714        28.73717        -0.60654
C         41.54211        29.48308         0.09684
C         42.69490        31.59112        -0.47308
C         41.49726        30.95496        -0.24939
C         42.70820        33.06631        -0.55245
C         41.42555        33.74824        -0.80387
C         42.82406        35.87828        -1.56166
C         41.45593        35.09141        -1.37859
C         42.78218        37.33527        -1.53215
C         41.53991        38.05717        -1.84651
C         42.66327        40.23977        -1.13495
C         41.46114        39.50498        -1.67559
C         42.78294        41.66057        -1.62872
C         41.53381        42.38133        -1.98755
C         42.76720        44.55240        -1.92597
C         41.49577        43.84186        -1.79248
C         42.80678        45.99764        -1.71584
C         41.59222        46.68761        -1.47859
C         42.84526        48.80427        -1.63314
C         41.63431        48.10771        -1.34337
C         42.81761        50.28074        -1.67864
C         41.66029        50.96930        -0.94893
C         43.07480        53.00563        -0.66005
C         41.88188        52.29752        -0.35757
C         43.94313        20.85699         0.77317
C         45.27907        23.00902         0.07087
C         43.95005        22.21066         0.16792
C         45.21475        24.48516         0.12816
C         43.98481        25.14945         0.08371
C         45.21171        27.34152        -0.04826
C         43.95482        26.60399        -0.04954
C         45.20946        28.76181        -0.17557
C         43.99368        29.48296        -0.38264
C         45.20543        31.62058        -0.45447
C         43.96649        30.87770        -0.45126
C         45.25800        33.02216        -0.66233
C         44.00275        33.79531        -0.71226
C         45.24721        35.91686        -1.07821
C         44.04984        35.19643        -1.16595
C         45.20862        37.33950        -1.16744
C         43.97086        38.05079        -1.25774
C         45.14838        40.21585        -0.95670
C         43.96677        39.48991        -1.20563
C         45.15151        41.65348        -0.93654
C         43.96143        42.33216        -1.40543
C         45.25498        44.50565        -1.26417
C         44.08063        43.76342        -1.73380
C         45.27563        45.91777        -1.43490
C         44.05349        46.66295        -1.72781
C         45.34038        48.78118        -1.96094
C         44.05539        48.08892        -1.80091
C         45.42016        50.27763        -2.02275
C         44.07488        51.08097        -1.87802
C         44.09213        52.45758        -1.40661
C         47.68415        23.11169         0.55545
C         46.55296        22.37569         0.43388
C         47.68728        24.54369         0.36642
C         46.45703        25.22046         0.21827
C         47.66971        27.38738         0.24043
C         46.44012        26.65709         0.13396
C         47.66437        28.81014         0.21574
C         46.43152        29.49233        -0.03017
C         47.61788        31.64200        -0.04054
C         46.41239        30.90773        -0.20431
C         47.66288        33.03265        -0.32410
C         46.48022        33.73917        -0.64707
C         47.67018        35.90777        -0.64597
C         46.49975        35.19756        -0.81711
C         47.74071        37.37232        -0.82289
C         46.45093        38.11792        -1.11237
C         47.54110        40.23926        -0.34827
C         46.40234        39.55075        -0.79548
C         47.50306        41.67407        -0.17861
C         46.32217        42.36567        -0.59846
C         47.49269        44.53182        -0.23082
C         46.35026        43.81526        -0.68982
C         47.51402        45.94662        -0.39149
C         46.44154        46.61018        -1.04739
C         47.63653        48.81084        -0.78427
C         46.58145        48.02442        -1.41669
C         47.69683        50.20464        -1.03822
C         46.69091        50.89241        -1.68258
C         50.18341        24.60544         0.23814
C         48.93142        25.27100         0.32127
C         50.15353        27.43081         0.30119
C         48.91992        26.69454         0.30734
C         50.14727        28.84866         0.51007
C         48.87855        29.54662         0.46920
C         49.79729        31.82776         0.97620
C         48.77300        30.96712         0.46827
C         50.02385        33.10568         0.53470
C         48.95878        33.73234        -0.25414
C         50.04673        36.01735         0.22207
C         48.95057        35.24202        -0.37428
C         50.00538        37.39491         0.25311
C         48.82695        38.13218        -0.18158
C         49.80136        40.19437         0.79978
C         48.73421        39.49860        -0.00731
C         49.82126        41.69917         0.67024
C         48.64180        42.39371         0.31038
C         49.65825        44.58460         0.98153
C         48.62776        43.85482         0.36001
C         49.53591        46.03453         1.03476
C         48.56123        46.70992         0.22250
C         49.34555        48.91868         0.97903
C         48.52746        48.14697         0.12734
C         51.35898        25.31179         0.07783
C         52.61194        27.45837        -0.14192
C         51.38377        26.72888         0.09168
C         52.61920        28.86092         0.06109
C         51.43126        29.51465         0.53457
C         52.68081        31.69503         0.61458
C         51.62174        30.82837         1.01070
C         52.60384        33.12082         0.69017
C         51.29164        33.82039         0.86417
C         52.53010        36.05027         0.53564
C         51.26471        35.31707         0.69425
C         52.47404        37.46154         0.51428
C         51.21161        38.14581         0.52798
C         52.33208        40.30525         0.76159
C         51.15011        39.53899         0.63157
C         52.22831        41.69652         1.07516
C         50.99203        42.39128         1.07553
C         52.13959        44.54829         1.80027
C         50.80869        43.80042         1.66895
C         52.22919        45.77947         2.39742
C         50.26515        46.88973         1.91222
C         50.15649        48.28457         1.90594
C         54.97256        27.55902        -0.76543
C         53.82012        26.82965        -0.55981
C         55.00376        28.96513        -0.54753
C         53.82094        29.62391        -0.11154
C         55.03079        31.79503        -0.11952
C         53.84945        31.04161         0.10102
C         55.00448        33.22448         0.09984
C         53.77254        33.88931         0.41853
C         54.95941        36.09666         0.29394
C         53.75266        35.34335         0.44015
C         54.92603        37.54374         0.36775
C         53.67932        38.22596         0.49932
C         54.82613        40.39392         0.66133
C         53.61512        39.64734         0.64075
C         54.78576        41.80112         0.99682
C         53.49283        42.36812         1.43618
C         54.68523        44.61607         1.69170
C         53.43578        43.83461         1.76383
C         54.63750        45.98847         2.09759
C         53.45589        46.51964         2.53939
C         56.18355        29.73504        -0.76054
C         56.19648        31.09766        -0.55781
C         56.17841        34.00768        -0.04442
C         56.16590        35.38489         0.07821
C         56.10235        38.33355         0.31422
C         56.05020        39.70887         0.45522
C         55.91813        42.60454         1.02618
C         55.87335        43.97549         1.37195
O         43.34342        33.69976         0.65050
O         41.72119        50.88590        -2.42485
O         27.97701        41.33826        -0.07642
O         44.65045        22.37964        -1.09942
O         41.29395        21.16163        -0.46052
O         39.85476        35.95512         0.24280
O         28.58241        34.83846        -1.52931
O         32.05527        33.58400        -2.58353
O         46.32834        48.20330        -2.85287
O         30.83295        31.31085        -2.46964
O         51.14758        34.69250         2.04545
O         50.68163        31.30449         1.93102
O         32.95503        27.25541         1.17996
O         40.79353        41.96953        -3.18867
O         43.59720        44.11342        -3.05737
O         40.81634        37.52298        -3.01540
O         39.46422        29.15453        -1.37289
O         32.77881        39.58084         1.63274
O         44.72031        50.85004        -3.16180
O         49.40887        34.38039        -1.49535
O         37.88341        28.54657         1.89064
O         51.09403        46.40556         2.91375
O         37.46777        45.53550        -2.16025
O         42.09105        35.20701        -2.66170
O         47.41501        37.79450        -2.18821
O         36.81319        47.88007         2.06878
O         29.59854        29.18930        -2.41175
O         53.48908        42.80316         2.85671
O         39.34682        26.11199         2.04838
O         40.53680        26.70166        -1.27095
O         50.35488        43.55065         3.03576
H         51.13425        43.23026         3.54105
O         37.61522        32.04348         1.71179
H         38.30981        32.69339         1.95236
O         42.44232        28.75106        -2.03288
H         41.66066        28.17110        -2.19923
O         30.73688        26.53386        -2.99261
H         30.09912        26.99479        -3.57902
O         49.41178        39.95984         2.20687
H         50.00423        40.50444         2.76867
O         36.08486        26.78934         2.44520
H         36.48650        27.61529         2.80558
O         34.60150        33.84679        -2.82546
H         33.79342        34.01548        -3.36403
O         29.69895        41.87496         3.11185
H         30.59516        42.15198         3.39808
O         42.35644        40.36528         0.32192
H         43.17834        40.66504         0.76753
O         41.78278        29.36243         1.52320
H         41.16512        29.95392         2.00219
H         27.26468        26.80033        -0.39080
H         26.41613        28.70601         0.84804
H         26.27964        31.14352         1.21494
H         26.06116        33.19548         1.16840
H         26.13963        35.59391         1.54728
H         25.98144        37.53714         1.33791
H         25.93532        39.97805         1.34063
H         26.07304        41.89570         2.05120
H         26.32148        44.26452         2.67983
H         27.53342        46.38626         2.40332
H         29.08609        25.55438        -1.14489
H         29.61131        47.62899         1.97502
H         32.86142        23.43468         0.05856
H         30.92337        24.51853        -0.89812
H         33.41145        49.67978         1.75021
H         31.26642        48.53156         1.86649
H         34.42903        22.52065         0.48644
H         35.08382        50.65869         1.57409
H         36.52908        21.31540         0.81392
H         37.20032        51.77837         1.27082
H         40.33785        19.46584         2.25455
H         38.19313        20.62388         1.95599
H         41.02766        53.81801         0.92478
H         38.97189        52.57874         1.42127
H         42.88091        19.29691         1.75346
H         43.17530        54.03758        -0.29246
H         44.90870        20.35306         0.92270
H         44.96254        53.07462        -1.66847
H         48.62590        22.59861         0.79155
H         46.60254        21.28166         0.51780
H         48.58881        50.76712        -0.72841
H         46.82721        51.95721        -1.91474
H         50.22710        23.50857         0.23458
H         49.30153        50.01451         0.95638
H         52.29595        24.75201        -0.04401
H         50.74401        48.86344         2.62986
H         55.88827        27.05295        -1.10396
H         53.83991        25.74599        -0.73842
H         55.56844        46.57223         2.13027
H         53.40674        47.53618         2.95112
H         57.09593        29.22403        -1.10091
H         57.12837        31.64866        -0.74283
H         57.13654        33.51460        -0.25605
H         57.11340        35.92847        -0.03516
H         57.08373        37.85726         0.18728
H         56.99334        40.27153         0.44149
H         56.89437        42.18288         0.75117
H         56.80992        44.55162         1.37676
