         429
 CSIRO Nanostructure Databank - Neutral Graphene Oxide Data Set
C          1.82864         2.41188         3.41440
C          1.82814         3.80767         3.29547
C          2.93329         1.66531         3.03031
C          2.94380         4.49665         2.77573
C          1.90672         6.75199         3.11891
C          1.95579         8.13124         3.03885
C          2.97482         5.94570         2.65944
C          3.07190         8.80331         2.47562
C          2.14179        11.07469         2.99673
C          2.23693        12.45461         2.98170
C          3.14907        10.24898         2.44113
C          3.37539        13.11652         2.44642
C          2.36926        15.40255         2.82360
C          2.40138        16.77924         2.69350
C          3.45370        14.58610         2.39638
C          3.50142        17.43197         2.08349
C          3.54907        18.85309         1.91389
C          4.08361         2.31100         2.50252
C          4.08034         3.73893         2.36694
C          5.21923         1.56495         2.10719
C          5.22666         4.39355         1.81744
C          4.10475         6.59147         2.07434
C          4.14205         8.01974         1.96302
C          5.21773         5.80778         1.62945
C          5.26287         8.66516         1.32264
C          4.28430        10.88226         1.84387
C          4.39405        12.31451         1.89537
C          5.30429        10.08702         1.24414
C          5.66363        12.94154         1.48675
C          4.57542        15.23294         1.83653
C          4.59519        16.64151         1.63034
C          5.77868        14.46532         1.48068
C          5.70054        17.27113         0.96906
C          4.61859        19.45578         1.30315
C          5.71491        18.68298         0.79149
C          6.37460         2.20168         1.61032
C          6.37840         3.62958         1.47596
C          7.51727         1.46300         1.19936
C          7.54387         4.27191         0.95960
C          6.33309         6.44252         0.99314
C          6.31787         7.85546         0.80179
C          7.47433         5.65571         0.64550
C          7.54283         8.51857         0.30626
C          6.30146        10.75961         0.32762
C          6.60168        12.20526         0.64453
C          7.59122         9.99603         0.17672
C          7.69960        12.82198         0.08163
C          6.79908        15.07572         0.61275
C          6.76517        16.48288         0.41625
C          7.79318        14.27926         0.00447
C          7.79068        17.10674        -0.34189
C          6.79004        19.30010         0.10686
C          7.82449        18.54557        -0.47654
C          8.71929         2.07514         0.79789
C          8.74949         3.51805         0.73482
C          9.78528         1.21837         0.28998
C          9.92159         4.25023         0.31328
C          8.55751         6.24563        -0.15840
C          8.56952         7.72664        -0.42324
C          9.84546         5.55951        -0.22150
C          9.83984         8.38610        -0.80305
C          8.69763        10.65776        -0.56303
C          8.75003        12.01496        -0.54876
C          9.73380         9.81815        -1.27876
C         10.00632        12.76478        -0.88984
C          8.76041        14.90525        -0.84127
C          8.76055        16.29690        -0.98937
C          9.70475        14.04079        -1.67016
C          9.72847        16.95835        -1.89528
C          8.91634        19.16898        -1.14911
C          9.91433        18.42489        -1.80512
C         11.13328         1.56072         0.34499
C         11.21176         3.69095         0.39024
C         12.28809         1.10440        -0.33903
C         12.29900         4.17096        -0.36222
C         11.00381         6.21622        -0.70583
C         10.97845         7.64415        -1.01480
C         12.19945         5.48158        -0.87581
C         12.23651         8.29527        -1.41512
C         11.07642        10.49617        -1.39717
C         11.10384        11.92658        -1.49736
C         12.23316         9.74635        -1.58296
C         12.20312        12.58350        -2.01148
C         10.99329        14.73355        -2.05987
C         10.89946        16.14887        -2.41082
C         12.18145        14.01970        -2.23782
C         12.11580        16.84697        -2.83961
C         11.08282        19.01686        -2.32167
C         12.23347        18.28261        -2.75996
C         13.47571         1.89516        -0.48292
C         13.49167         3.35325        -0.53032
C         14.69237         1.20834        -0.73474
C         14.67732         4.04884        -0.83977
C         13.36815         6.07070        -1.61618
C         13.39343         7.58113        -1.59391
C         14.66295         5.45217        -1.14261
C         14.68724         8.22489        -2.06516
C         13.46916        10.40898        -1.91949
C         13.39937        11.81328        -2.36009
C         14.67595         9.72945        -1.98714
C         14.70110        12.54469        -2.68215
C         13.32470        14.66357        -2.81864
C         13.16219        15.99135        -3.22492
C         14.73027        14.05251        -2.96038
C         15.02073        17.08093        -3.01738
C         13.46700        19.00368        -2.81597
C         14.79145        18.46342        -2.71178
C         15.93904         1.86616        -0.84849
C         15.93768         3.32692        -0.87418
C         17.16753         1.18081        -0.81661
C         17.11414         4.02403        -0.89101
C         15.84508         6.21144        -1.11781
C         15.92257         7.59154        -1.45182
C         17.07067         5.48785        -0.72243
C         17.12970         8.35229        -1.34663
C         15.92307        10.45126        -2.05893
C         15.92960        11.85709        -2.27221
C         17.14910         9.74583        -1.80100
C         17.09201        12.63922        -1.96394
C         15.75739        14.80087        -2.05165
C         15.97196        16.28559        -2.38058
C         17.07380        14.06679        -1.89976
C         17.08223        16.99139        -1.84322
C         15.89166        19.15161        -2.17000
C         17.08423        18.43831        -1.85861
C         18.42757         1.86931        -0.78797
C         18.41667         3.33174        -1.17726
C         19.61821         1.23240        -0.53394
C         19.64703         4.11066        -0.77869
C         18.34578         6.24696        -0.67723
C         18.31514         7.71714        -0.83787
C         19.62047         5.51929        -0.78773
C         19.51890         8.33427        -0.37814
C         18.35050        10.51684        -1.85901
C         18.30147        11.91719        -1.76251
C         19.70897         9.93195        -2.12284
C         19.45880        12.62848        -1.12690
C         18.25408        14.79883        -1.52107
C         18.24876        16.26820        -1.43674
C         19.45175        14.11469        -1.28092
C         19.40228        16.98941        -1.09091
C         18.26680        19.12511        -1.50989
C         19.44180        18.42574        -1.17130
C         20.87409         1.99397        -0.18893
C         20.86257         3.42476        -0.65037
C         22.18931         1.30634        -0.42695
C         22.09393         4.13465        -0.73309
C         20.82420         6.26422        -0.73269
C         20.78892         7.70702        -0.57547
C         22.04388         5.56578        -0.75574
C         22.01643         8.46435        -0.71350
C         20.87502        10.59785        -1.46153
C         20.81042        11.97858        -1.28567
C         22.05334         9.86749        -1.05045
C         21.99012        12.73856        -1.04410
C         20.63946        14.78521        -0.73897
C         20.61189        16.30088        -0.62451
C         21.96000        14.12044        -0.80206
C         21.89179        17.01531        -0.57513
C         20.66080        19.11437        -0.91963
C         21.87541        18.43779        -0.67481
C         23.38246         1.99517        -0.63312
C         23.33870         3.42468        -0.84138
C         24.64366         1.25521        -0.42252
C         24.46984         4.29805        -1.36163
C         23.26242         6.33073        -0.45859
C         23.25694         7.79508        -0.56835
C         24.55302         5.60728        -0.61521
C         24.49533         8.48374        -0.59152
C         23.27592        10.57239        -0.95007
C         23.27044        12.02946        -1.15558
C         24.50195         9.90913        -0.68890
C         24.53707        12.81396        -0.78492
C         23.14932        14.86830        -0.51472
C         23.10015        16.31359        -0.37498
C         24.39836        14.21900        -0.38811
C         24.30733        17.03956        -0.13808
C         23.10777        19.13758        -0.50197
C         24.28255        18.46777        -0.20901
C         25.85872         1.56350        -0.98797
C         25.83117         3.69929        -1.48067
C         27.19300         1.21906        -0.59160
C         27.01023         4.25564        -1.09139
C         25.80650         6.37372        -0.66849
C         25.75261         7.77935        -0.53182
C         27.02299         5.67362        -0.74657
C         26.97440         8.49814        -0.40223
C         25.73017        10.63398        -0.48958
C         25.72630        12.05437        -0.38513
C         26.95041         9.92115        -0.29543
C         26.84826        12.76193         0.08831
C         25.55202        14.89781         0.11405
C         25.51910        16.34444         0.21230
C         26.74566        14.16458         0.35688
C         26.68970        17.07783         0.52009
C         25.53343        19.29212        -0.00402
C         26.77056        18.49201         0.33172
C         28.32148         2.02722        -0.83037
C         28.30614         3.48994        -1.33276
C         29.59582         1.42833        -0.70253
C         29.51668         4.26666        -0.82575
C         28.24019         6.37696        -0.55586
C         28.20696         7.77978        -0.33596
C         29.49051         5.66514        -0.56290
C         29.42101         8.48739        -0.06480
C         28.16646        10.62656        -0.03215
C         28.10922        12.05170         0.23493
C         29.37149         9.90155         0.09303
C         29.24724        12.72761         0.65419
C         27.86216        14.84375         1.03769
C         27.84606        16.37691         1.10788
C         29.16459        14.10400         1.17819
C         29.14489        17.12466         1.23998
C         27.97224        19.17889         0.45509
C         29.20516        18.54208         0.78712
C         30.80669         2.14114        -0.86501
C         30.74858         3.59938        -0.80629
C         32.04970         1.48668        -0.92935
C         31.95328         4.33409        -0.66915
C         30.69182         6.38011        -0.25800
C         30.65868         7.78730         0.01856
C         31.94916         5.70221        -0.34834
C         31.85760         8.47962         0.44268
C         30.64271        10.61200         0.26916
C         30.56385        12.09788         0.57133
C         31.84255         9.84391         0.66229
C         31.77474        12.80563         1.03195
C         30.46610        14.87145         1.29693
C         30.43674        16.37274         1.31423
C         31.75697        14.16294         1.07525
C         31.68291        17.05257         0.75886
C         30.41809        19.22009         0.78015
C         31.68217        18.55694         0.95339
C         33.27634         2.19418        -1.03954
C         33.21070         3.67680        -1.04797
C         34.50994         1.55206        -1.07019
C         34.47566         4.48758        -0.96574
C         33.18907         6.38751        -0.03679
C         33.08189         7.64851         0.79406
C         34.41766         5.80151        -0.27842
C         34.38040         8.43530         0.83522
C         32.98682        10.54023         1.30854
C         32.98150        12.06022         1.56248
C         34.32016         9.82912         1.33752
C         34.30482        12.77472         1.31694
C         33.05002        14.92475         0.88360
C         32.91675        16.35542         1.44254
C         34.29521        14.18237         1.32826
C         34.18762        17.12126         1.26172
C         32.89282        19.21213         0.97226
C         34.15967        18.49911         1.06061
C         35.77023         2.24791        -1.04607
C         35.77230         3.74323        -1.00965
C         36.96372         1.57113        -0.99646
C         36.99153         4.43793        -0.51755
C         35.65719         6.43237         0.16477
C         35.57964         7.77840         0.71384
C         36.88986         5.80380         0.05265
C         36.83826         8.42179         1.15820
C         35.54827        10.64274         1.37395
C         35.54394        12.06179         1.38164
C         36.81347         9.90737         1.45442
C         36.78205        12.81484         1.42032
C         35.48887        14.92194         1.40872
C         35.44897        16.41294         1.67547
C         36.74030        14.24821         1.45059
C         36.70718        17.12716         1.27623
C         35.39808        19.19755         0.93116
C         36.64065        18.53870         0.98883
C         38.28709         2.30030        -0.92955
C         38.11979         3.55767        -0.03267
C         39.44184         1.48360        -0.39195
C         39.41122         4.32135         0.11562
C         38.13480         6.44529         0.44355
C         38.12474         7.74514         0.90052
C         39.39891         5.70253         0.36723
C         39.38135         8.38818         1.45095
C         38.08352        10.66733         1.25438
C         38.05496        12.14424         1.44762
C         39.36553         9.90809         1.25824
C         39.24869        12.84333         1.54637
C         37.94890        15.02190         1.49046
C         37.92025        16.43635         1.33244
C         39.23051        14.31273         1.61404
C         39.21864        17.22397         1.35092
C         37.84336        19.24550         0.69969
C         39.09508        18.62425         0.76690
C         40.55495         2.12247         0.02776
C         40.61322         3.57849         0.13093
C         41.83531         4.26571         0.29640
C         40.64296         6.38853         0.55828
C         40.64339         7.78756         0.86819
C         41.84897         5.64033         0.46813
C         41.80990         8.58069         0.79076
C         40.64743        10.63612         1.55015
C         40.57499        12.16806         1.61697
C         41.85613         9.91397         1.14678
C         41.74492        12.92934         1.13194
C         40.52848        15.06491         1.25445
C         40.37080        16.46014         0.67076
C         41.67864        14.24153         0.83501
C         41.63228        17.29299         0.71269
C         40.28177        19.30553         0.47185
C         41.54519        18.64543         0.55982
O         29.80318        14.28630         2.47648
O         31.66470        16.88636        -0.63451
O         17.62575         5.88294         0.59982
O         14.18894        16.54976        -3.99106
O         23.95119         5.69361         0.71171
O         25.83528         2.44671        -2.10471
O          8.04769         6.82077        -1.43614
O         33.76904         4.36008        -2.23853
O         40.15420        14.88090         2.62432
O          6.32419        13.67101         2.58543
O         36.71927         4.37616        -1.95845
O         11.41790         2.62535         1.24880
O         24.15757        12.54780        -2.18868
O         19.86225         9.05466        -2.96512
O         40.74617        11.34347         2.82322
O         29.85876        16.93799         2.52036
O         13.92408        11.91121        -3.74810
O          9.68227        16.44133        -3.27112
O          8.12911         9.36714         1.38681
O         30.86842        11.59385        -0.80725
O         20.38185        15.44288         0.56478
O         27.46629        15.55472         2.24999
O         38.76590        10.30131        -0.01703
O         36.81343         8.93072         2.56987
O         33.42417         9.86446         2.55817
O         38.68821         2.67640        -2.26758
H         37.98602         3.27846        -2.62014
O         14.78043         7.91602        -3.51748
H         14.31184         8.62910        -4.00340
O         13.21879         5.69399        -3.02776
H         13.85961         6.25810        -3.52945
O         33.27935        14.97470        -0.54349
H         32.65654        15.67227        -0.92479
O          5.69095        10.74099        -1.00610
H          4.83706        11.21963        -0.95914
O         10.54118        13.23120         0.38821
H         10.60027        12.46505         0.99691
O         19.49157         9.49539         0.32025
H         18.58458         9.85920         0.38690
O         35.41594        16.53296         3.15773
H         34.48300        16.34858         3.43505
O         32.87436         7.18883         2.17126
H         32.96031         7.99164         2.74170
O         39.41068         8.10657         2.87675
H         38.51146         8.32296         3.22704
O         40.03071        16.24520        -0.72529
H         39.99660        17.12154        -1.16459
O         37.71690         3.11250         1.29153
H         38.46972         2.62173         1.68428
O         24.08181         4.66292        -2.73246
H         24.14171         3.84868        -3.27739
O         15.12298        14.81070        -0.73277
H         15.77208        15.16069        -0.08594
O          9.01760        13.69907        -2.89650
H          8.94314        14.53325        -3.41791
O         25.77020        20.11584        -1.15995
H         25.95001        19.52918        -1.92298
O         15.19765        14.19382        -4.30844
H         14.68720        13.56199        -4.86075
O         18.49533         3.32567        -2.65535
H         17.75535         2.77199        -2.98552
O          9.22257         9.71223        -2.65222
H          9.75730         9.04094        -3.12651
O         32.68971        16.28445         2.87232
H         31.79507        15.92183         3.06088
O         39.58973        17.41031         2.73810
H         38.80843        17.75168         3.22044
O         28.48200         3.40389        -2.77697
H         27.70797         2.90755        -3.12436
O         19.18290        12.42707         0.33623
H         19.62414        13.16177         0.81983
O         32.79952        12.23862         3.00626
H         33.20195        11.44905         3.44374
O         20.82417         2.09615         1.30218
H         21.57284         2.66736         1.58062
H          0.94142         1.90656         3.82100
H          0.93372         4.35934         3.61389
H          2.92897         0.57077         3.13186
H          1.01947         6.28608         3.56791
H          1.10562         8.70760         3.42682
H          1.25428        10.62138         3.45812
H          1.41905        13.03690         3.42580
H          1.48134        14.94218         3.27692
H          1.55314        17.38076         3.05117
H          2.70763        19.45817         2.28185
H          5.20169         0.46881         2.19975
H          4.63989        20.54807         1.17654
H          7.46765         0.36437         1.23309
H          6.79765        20.39530         0.00145
H          9.48288         0.27265        -0.18387
H          8.99170        20.26681        -1.12999
H         12.30608         0.07947        -0.74036
H         11.18385        20.10931        -2.22270
H         14.67995         0.10755        -0.72755
H         13.38275        20.08519        -2.61589
H         17.16245         0.08993        -0.66595
H         15.83578        20.23075        -1.96787
H         19.61929         0.14608        -0.34769
H         18.28405        20.22387        -1.54959
H         22.23696         0.22947        -0.20229
H         20.66342        20.21349        -0.96415
H         24.61483         0.47383         0.35254
H         23.11844        20.23357        -0.59103
H         27.35548         0.26026        -0.07252
H         25.34579        20.00651         0.84426
H         29.64815         0.34220        -0.52683
H         27.98029        20.25756         0.23686
H         32.07535         0.38664        -0.90250
H         30.41633        20.30143         0.56506
H         34.53507         0.45154        -1.06225
H         32.92763        20.31284         0.94415
H         36.96096         0.47080        -1.05103
H         35.38164        20.27872         0.72803
H         39.41850         0.38623        -0.47324
H         37.77862        20.29959         0.38938
H         41.45351         1.55378         0.31316
H         42.77959         3.70285         0.29231
H         42.81349         6.14559         0.61293
H         42.74604         8.11172         0.45387
H         42.82838        10.42446         1.17544
H         42.66542        12.37488         0.90206
H         42.52263        14.73625         0.33232
H         42.61417        16.80001         0.74914
H         40.24439        20.36822         0.19145
H         42.46140        19.24877         0.48028
