         671
 CSIRO Nanostructure Databank - Neutral Graphene Oxide Data Set
C          6.21551        31.59209        -1.18917
C          6.19979        32.95949        -1.32045
C          8.40039        27.35191         0.17550
C          8.42850        28.76323        -0.05414
C          7.31834        29.46208        -0.49793
C          8.44142        31.62606        -0.14148
C          7.33826        30.88770        -0.63485
C          8.31711        33.08679        -0.03057
C          7.26412        33.77500        -0.80644
C          8.47205        35.92527        -0.61804
C          7.31847        35.14568        -0.98422
C          8.52252        37.31554        -0.86605
C         10.72461        22.99533         1.14863
C         10.70065        24.48591         0.88047
C          9.54881        25.18062         0.64417
C         10.77715        27.34285         0.74711
C          9.53576        26.62923         0.53762
C         10.69986        28.82184         1.01906
C          9.75451        29.49677         0.02101
C         10.76956        31.71680         0.68647
C          9.63690        30.98898         0.27764
C         10.80934        33.14434         0.67042
C          9.55787        33.87871         0.37220
C         10.80439        35.99684         0.16821
C          9.61571        35.28161        -0.06038
C         10.84355        37.40473        -0.07695
C          9.67636        38.07450        -0.57906
C         10.85917        40.24577        -0.48147
C          9.71187        39.49293        -0.75236
C         10.88855        41.67046        -0.60095
C         13.27577        18.75525         0.57130
C         13.23837        20.17278         0.52984
C         12.02389        20.89759         0.70654
C         13.22937        22.99706         0.52581
C         12.01687        22.28343         0.76826
C         13.26525        24.46701         0.71262
C         11.98150        25.20913         0.92995
C         13.24544        27.37631         0.73468
C         11.97394        26.67467         0.75667
C         13.21900        28.84363         0.85845
C         12.03129        29.52100         1.00771
C         13.25665        31.73979         0.97229
C         11.97679        31.00607         1.28204
C         13.25790        33.14332         1.02642
C         11.99452        33.87813         0.93431
C         12.91683        36.19945         1.27748
C         11.92438        35.33708         0.80995
C         13.15261        37.52217         0.78406
C         12.02878        38.15645         0.16998
C         13.26715        40.26022         0.15506
C         12.06730        39.56123        -0.06294
C         13.27393        41.77090         0.23575
C         12.03247        42.42818        -0.33634
C         13.24886        44.57350        -0.46229
C         12.03785        43.83695        -0.43806
C         13.30301        45.95992        -0.36682
C         15.78318        14.47780         0.41305
C         15.72760        15.89452         0.55222
C         14.53936        16.61612         0.53764
C         15.71207        18.81233         0.48147
C         14.49351        18.05696         0.54323
C         15.69803        20.19778         0.32709
C         14.45260        20.90304         0.33166
C         15.66365        23.05334        -0.21759
C         14.42119        22.32250         0.25512
C         15.72179        24.52928         0.12960
C         14.39538        25.25179         0.06013
C         15.72086        27.40170         0.73750
C         14.41586        26.68493         0.53704
C         15.65350        28.80695         0.13480
C         14.44897        29.58251         0.65537
C         15.66130        31.70188         0.27872
C         14.43578        30.97239         0.67557
C         15.70815        33.13459         0.61050
C         14.57892        33.79185         1.01801
C         15.77233        36.00206         1.02560
C         14.78584        35.17246         1.44977
C         15.70186        37.50575         1.34926
C         14.41344        38.19890         0.84749
C         15.73783        40.37250         0.60953
C         14.45219        39.56173         0.48682
C         15.73285        41.70501        -0.13014
C         14.56188        42.39568        -0.25459
C         15.75758        44.57132        -0.55154
C         14.49615        43.80175        -0.83099
C         15.79074        45.95850        -0.55614
C         14.52961        46.71411        -0.48025
C         15.83332        48.84293        -0.79933
C         14.56333        48.09153        -0.46803
C         15.83823        50.31968        -0.47972
C         18.26587        10.24254         0.04331
C         18.20760        11.65054         0.03507
C         17.00160        12.35636         0.25564
C         18.30399        14.43132         0.73220
C         16.98290        13.75710         0.41227
C         18.29265        15.92612         0.51389
C         17.00561        16.61863         0.74109
C         18.25038        18.82610         0.34957
C         16.99673        18.11748         0.67969
C         18.20595        20.20117         0.22007
C         16.95238        20.94512         0.26272
C         18.20433        23.06145        -0.07148
C         16.93608        22.31670         0.13073
C         18.20749        24.54403        -0.22793
C         16.91563        25.24808         0.04845
C         18.19136        27.35933         0.30005
C         16.95000        26.65067         0.27011
C         18.16538        28.82249         0.34695
C         16.98224        29.50458         0.30777
C         18.24269        31.70213         0.43706
C         16.95913        30.96372         0.10541
C         18.17422        33.15663        -0.02768
C         17.02495        33.87874         0.69815
C         18.25582        35.98642         0.53457
C         16.91474        35.34803         0.26536
C         18.20304        37.43241         0.82166
C         16.93015        38.15776         0.76552
C         18.28319        40.21548        -0.08320
C         16.93333        39.50566         0.26791
C         18.23190        41.67698        -0.32997
C         17.02330        42.32885        -0.45225
C         18.28006        44.53318        -0.75218
C         16.98932        43.78446        -0.75568
C         18.25900        45.92058        -0.21944
C         17.02940        46.68998        -0.41372
C         18.26344        48.79359        -0.04943
C         17.07014        48.09997        -0.32762
C         18.20881        50.26793         0.31976
C         16.97668        51.00161        -0.16577
C         18.24432        53.14393        -0.26211
C         17.04991        52.45250        -0.12751
C         18.31985        54.56831        -0.23092
C         20.78902         6.04449        -0.04884
C         20.73174         7.41977        -0.17296
C         19.51800         8.14893        -0.02851
C         20.57766        10.20918        -0.98502
C         19.44910         9.52657        -0.23586
C         20.56471        11.73244        -0.85935
C         19.41715        12.40934        -0.23700
C         20.71839        14.48482        -0.00737
C         19.48848        13.75890         0.07253
C         20.76301        15.86727         0.60085
C         19.46365        16.62847         0.42806
C         20.71898        18.74965         0.22747
C         19.49525        18.08329         0.31870
C         20.75818        20.20521         0.00811
C         19.45252        20.94835        -0.02506
C         20.75210        23.12883         0.29726
C         19.44653        22.38220         0.45688
C         20.75353        24.51995         0.33461
C         19.55170        25.29802        -0.21299
C         20.65472        27.42629         0.66537
C         19.42184        26.70975         0.27197
C         20.73522        28.87001         0.36059
C         19.45631        29.51286         0.05099
C         20.74383        31.72889        -0.03636
C         19.46314        31.00655        -0.11302
C         20.70161        33.18579         0.01111
C         19.49916        33.87326         0.14359
C         20.69205        36.09726         0.03791
C         19.43591        35.30591         0.31251
C         20.74802        37.40165         0.79547
C         19.48021        38.20686         0.83597
C         20.77510        40.26055         0.33306
C         19.53930        39.60114         0.35627
C         20.84559        41.61248        -0.27851
C         19.54763        42.30850        -0.64808
C         20.88304        44.54300        -0.70379
C         19.58810        43.79922        -0.81666
C         20.84151        45.95867        -0.32073
C         19.59272        46.64776        -0.03582
C         20.72358        48.83450         0.15329
C         19.53365        48.12824         0.02219
C         20.72720        50.30767         0.25723
C         19.47769        50.99869        -0.00050
C         20.79183        53.11511        -0.47443
C         19.48652        52.35490        -0.62721
C         20.76933        54.56992        -0.87134
C         19.50149        55.28526        -0.44002
C         20.75268        57.41246        -0.51157
C         19.53531        56.69800        -0.43426
C         20.78979        58.80218        -0.78852
C         23.34307         3.28482         0.22974
C         22.11526         3.94950         0.24491
C         23.23481         6.00499        -0.42447
C         22.04489         5.32382        -0.07891
C         23.12805         7.41778        -0.94007
C         22.03521         8.19106        -0.20949
C         23.11919        10.28158        -0.99595
C         21.94508         9.61074        -0.72508
C         23.15743        11.74273        -1.00889
C         21.88285        12.48917        -0.89944
C         23.17723        14.54179        -0.29682
C         21.90890        13.86446        -0.37682
C         23.21263        15.94671         0.00109
C         21.99577        16.63880         0.22349
C         23.21242        18.75794         0.32734
C         21.98195        18.04114         0.26410
C         23.17155        20.19752         0.64530
C         21.96491        20.96818         0.36799
C         23.22475        23.10009         0.52368
C         21.97606        22.37455         0.42960
C         23.19308        24.52112         0.63177
C         21.98433        25.22455         0.58212
C         23.20913        27.52803         1.15418
C         21.93181        26.67571         0.92248
C         23.21875        28.89451         0.47573
C         21.93441        29.56773         0.24782
C         23.22589        31.68282        -0.34096
C         21.91975        30.99688        -0.03014
C         23.16862        33.18138        -0.15719
C         21.97815        33.90378        -0.03647
C         23.18870        36.07544         0.11049
C         21.97918        35.32747         0.07161
C         23.24549        37.42391         0.45316
C         22.02359        38.14641         0.83769
C         23.24742        40.29318         0.62606
C         22.00425        39.61901         0.69129
C         23.23174        41.72628         0.33974
C         22.10345        42.38255        -0.08530
C         23.38024        44.60014        -0.12795
C         22.22246        43.78561        -0.69120
C         23.34953        45.95518         0.00599
C         22.09215        46.69121        -0.28670
C         23.24496        48.89278         0.44797
C         22.01889        48.16349        -0.03362
C         23.27439        50.25760        -0.26079
C         22.02943        51.05511         0.11297
C         23.26814        53.18531        -0.37788
C         21.99206        52.48050        -0.30717
C         23.26052        54.56332        -0.36142
C         22.02269        55.30507        -0.44241
C         23.21970        57.45700        -0.00675
C         21.99882        56.67968        -0.32874
C         23.23823        58.91453        -0.36938
C         21.99194        59.52348        -0.89145
C         23.30396        61.49436        -1.50459
C         22.06916        60.83611        -1.39478
C         24.51820         3.96245        -0.09511
C         25.68576         6.07624        -0.71172
C         24.47953         5.33678        -0.43233
C         25.68319         7.44972        -0.92464
C         24.42949         8.18787        -0.92778
C         25.62738        10.24711        -1.57698
C         24.39562         9.55469        -1.04663
C         25.62712        11.80042        -1.45757
C         24.35014        12.43089        -0.92667
C         25.60323        14.57025        -0.54133
C         24.37377        13.85484        -0.61210
C         25.65694        15.93444        -0.20788
C         24.44809        16.66064         0.00958
C         25.69570        18.80358         0.34389
C         24.45096        18.08169         0.26242
C         25.73457        20.20326         0.44047
C         24.50005        20.96660         0.68307
C         25.71276        23.11003         0.35763
C         24.47797        22.42082         0.49922
C         25.73984        24.54771         0.40856
C         24.48637        25.23105         0.81346
C         25.73890        27.45886         0.61284
C         24.50350        26.72913         0.97372
C         25.70195        28.87125         0.50051
C         24.41938        29.57263         0.43034
C         25.72626        31.74028         0.06641
C         24.40758        31.09152         0.43654
C         25.73047        33.18121        -0.19435
C         24.43681        33.88887        -0.36906
C         25.71591        36.11650        -0.08937
C         24.44034        35.39684        -0.26512
C         25.75393        37.41111         0.33953
C         24.52067        38.08274         0.89360
C         25.73330        40.26463         0.68832
C         24.49465        39.59156         0.70965
C         25.75180        41.72603         0.82744
C         24.48060        42.47999         0.58735
C         25.82293        44.57331         0.62048
C         24.68090        43.84834        -0.04400
C         25.74940        46.02799         0.95701
C         24.54062        46.73427         0.36761
C         25.75011        48.90430         0.56465
C         24.52465        48.09966         0.32097
C         25.73887        50.33844         0.15971
C         24.57395        51.00084        -0.05463
C         25.74377        53.17017         0.13607
C         24.58772        52.43158        -0.55440
C         25.83233        54.61723        -0.27727
C         24.53399        55.33601        -0.38192
C         25.80138        57.48086        -0.12288
C         24.53054        56.72023         0.22497
C         25.74027        58.86209        -0.45214
C         24.54291        59.56118        -0.64674
C         24.51006        60.87852        -1.16672
C         26.90677         8.19360        -0.98889
C         28.14641        10.28870        -1.14114
C         26.92006         9.56760        -1.17387
C         28.18432        11.68161        -1.03396
C         26.87891        12.36290        -0.81317
C         28.12623        14.58288        -0.96148
C         26.88170        13.82334        -0.56799
C         28.11615        15.99017        -0.42843
C         26.94897        16.61648        -0.10446
C         28.22891        18.76325         0.24312
C         26.96411        17.99507         0.52175
C         28.23713        20.21096         0.64115
C         26.94628        20.95714         0.38723
C         28.19778        23.10846         0.21088
C         26.94500        22.36487         0.33541
C         28.18586        24.57114         0.10467
C         26.92793        25.28065         0.30361
C         28.14690        27.46658         0.16560
C         26.94270        26.73583         0.39201
C         28.15601        28.86990         0.19342
C         26.92413        29.58418         0.33148
C         28.18154        31.79738         0.36360
C         26.89805        31.02746         0.18079
C         28.16812        33.15877        -0.31401
C         26.88932        33.89584        -0.35018
C         28.18276        36.02304         0.05634
C         26.94973        35.39962        -0.62871
C         28.17223        37.52710        -0.01462
C         26.99987        38.17860         0.29386
C         28.21251        40.34374         0.44974
C         26.97766        39.60972         0.48098
C         28.22150        41.78001         0.62368
C         27.02531        42.45786         0.70314
C         28.22454        44.60876         1.31721
C         26.98459        43.89686         0.83896
C         28.25528        46.05627         0.84907
C         27.07489        46.72177         0.70217
C         28.32813        48.91337         0.46505
C         27.05568        48.19559         0.68211
C         28.31724        50.28563         0.24889
C         27.06343        50.98783        -0.21520
C         28.26642        53.17336         0.17008
C         27.06742        52.46407         0.04411
C         28.23723        54.63090         0.25196
C         27.07700        55.35895         0.06621
C         27.01157        56.79321        -0.03527
C         29.37791        12.41258        -0.83318
C         30.58523        14.50536        -0.37228
C         29.40095        13.81430        -0.66010
C         30.65636        15.92252        -0.28139
C         29.41394        16.72954        -0.60068
C         30.69028        18.75256         0.10182
C         29.41529        18.10458         0.00567
C         30.73712        20.22361         0.08302
C         29.43262        20.94644         0.09452
C         30.66857        23.06487        -0.18030
C         29.38892        22.41812         0.12720
C         30.65418        24.58619        -0.23356
C         29.35601        25.27379        -0.11084
C         30.67913        27.42415        -0.02438
C         29.36480        26.75487        -0.39697
C         30.77400        28.89922        -0.31846
C         29.36273        29.60857        -0.39230
C         30.64016        31.72460         0.17460
C         29.45155        31.04716         0.06506
C         30.65076        33.22680         0.33664
C         29.46064        33.89807        -0.30494
C         30.68849        36.05701        -0.18642
C         29.49988        35.38020        -0.28008
C         30.73204        37.53363        -0.30237
C         29.39922        38.29433        -0.23660
C         30.68600        40.39925         0.19441
C         29.43293        39.70439         0.15635
C         30.72197        41.78069         0.48158
C         29.48417        42.51625         0.67571
C         30.77649        44.59172         1.27665
C         29.49466        43.85807         0.99164
C         30.74298        46.05537         0.86757
C         29.53750        46.75828         0.77490
C         30.78805        48.89510         0.51465
C         29.54640        48.18178         0.58525
C         30.76214        50.31087         0.39591
C         29.54865        51.02785         0.26350
C         29.49975        52.45265         0.20685
C         31.85622        16.60836        -0.12452
C         33.12453        18.78206        -0.19915
C         31.90452        18.04879        -0.06173
C         33.25110        20.17742        -0.02469
C         32.01096        20.90466         0.54324
C         32.96663        23.18470         0.58854
C         31.90839        22.39521         0.27077
C         33.07588        24.59869         0.35032
C         31.87673        25.30892         0.14726
C         33.10611        27.38415         0.80343
C         31.83692        26.73027         0.26173
C         33.13609        28.86953         0.55421
C         31.79864        29.57118         0.62105
C         33.11648        31.68808         0.26149
C         31.89997        31.03276         0.29939
C         33.17900        33.11986        -0.09174
C         31.91162        33.88270        -0.19205
C         33.15786        36.02571         0.03510
C         31.96149        35.36225        -0.11301
C         33.16285        37.48414         0.44959
C         31.94521        38.26374         0.02747
C         33.18543        40.37477         0.16726
C         31.93651        39.65734         0.09815
C         33.20818        41.75106         0.35002
C         31.97452        42.48255         0.56112
C         33.23827        44.59205         0.71060
C         32.00395        43.86250         0.79203
C         33.21674        45.99944         0.74601
C         31.99472        46.75094         0.74651
C         31.99786        48.15082         0.58722
C         34.48495        20.80775        -0.31411
C         35.65373        23.10269        -0.40217
C         34.81272        22.13426         0.11047
C         35.59462        24.51801        -0.01267
C         34.36466        25.23400         0.29241
C         35.57261        27.37010         0.29915
C         34.38362        26.66201         0.39382
C         35.61297        28.80743         0.74479
C         34.31815        29.54801         0.51697
C         35.57890        31.69445         0.40036
C         34.36117        30.99332         0.41494
C         35.60308        33.12914         0.25355
C         34.43670        33.85716         0.09720
C         35.61027        36.02551         0.27693
C         34.42528        35.31204         0.10892
C         35.63123        37.47214         0.19438
C         34.45530        38.18240         0.13327
C         35.72466        40.34670         0.14601
C         34.44411        39.64074        -0.24245
C         35.69819        41.73119         0.32463
C         34.47291        42.47249         0.39363
C         34.45837        43.86049         0.54476
C         36.77371        25.25841        -0.11040
C         38.02088        27.38465        -0.00548
C         36.81978        26.68006         0.06113
C         38.03668        28.86724        -0.24590
C         36.83231        29.58382         0.31528
C         38.12200        31.68306         0.67275
C         36.82945        30.95163         0.38192
C         38.14673        33.13656         0.29244
C         36.88054        33.87745        -0.02734
C         38.15707        36.01324         0.20045
C         36.88835        35.27659         0.59054
C         38.12039        37.42892         0.10800
C         36.92203        38.17226         0.13248
C         36.91887        39.58725         0.16775
C         39.33614        29.59254         0.02361
C         40.60079        31.71207         0.26694
C         39.36921        30.93209         0.25612
C         40.58630        33.07242         0.29336
C         39.33825        33.82919         0.24220
C         39.32788        35.26890         0.08539
O         34.05346        22.56970         1.22637
O         18.21291        23.65392        -1.42012
O         13.78655        35.71472         2.27147
O         21.44666        37.48713         2.06445
O         17.48148        39.52178        -1.10578
O         21.02118        12.36368        -2.10478
O         18.82659        37.93548         2.12284
O         24.66800        25.84968         2.15039
O         17.04735        17.41589         1.98784
O         24.38709        34.74270        -1.58976
O         19.35787        30.16921        -1.28631
O         18.85122        46.00511         1.11550
O         23.04038        58.47415         1.03693
O         28.97638        33.28062        -1.53191
O         21.00480        26.94819         2.03176
O         22.21714        47.68352        -1.43058
O         30.06597        38.01527        -1.51576
O         26.33438        48.70891         1.92002
O         30.06596        20.58213        -1.18936
O         20.23851        44.28727        -2.03704
O         23.81776        20.53600         1.91783
O         20.32842        41.61383        -1.66938
O         26.86649        12.87282         0.56292
O         20.13032        20.66468        -1.27336
O         12.89093        24.84318         2.06969
O          8.47682        33.60531         1.33267
O         16.18825        31.36184        -1.07158
O         30.77317        23.76235        -1.45599
O         17.60249        44.27725        -2.02385
O         25.31873        55.06319        -1.57973
O         25.49804         9.91900        -3.06382
O         24.94843        42.29124         1.94887
O         21.50715        50.86792         1.44596
O         28.99661        29.63195        -1.76984
O         32.50217        33.35887        -1.40975
O         22.58508        43.53498        -2.07986
H         21.73194        43.39237        -2.56656
O         15.92543        48.81086        -2.27593
H         15.81975        47.87642        -2.55759
O         24.59703        56.46455         1.66111
H         24.23288        57.26844         2.09994
O         14.05413        25.30018        -1.36568
H         14.46899        24.50926        -1.79679
O         15.88818        27.60214         2.17435
H         15.83131        26.73004         2.61818
O          9.60210        22.34782         0.54529
H          9.69243        22.41470        -0.42714
O         10.08942        28.97924         2.33911
H         10.51704        28.33863         2.94623
O         20.30576         9.89276        -2.38313
H         20.69586        10.62661        -2.91424
O         22.73307         7.32582        -2.33813
H         23.47290         6.91968        -2.83603
O         20.76061        54.59117        -2.33962
H         20.20787        53.82665        -2.63112
O         19.37299        52.12909        -2.10378
H         18.48645        51.73971        -2.27320
O         31.35645        28.98834        -1.63143
H         30.60391        29.30222        -2.21746
O         25.38467        53.17770         1.55445
H         25.94327        53.84148         2.01246
O         22.44369         8.32767         1.18652
H         22.49980         7.42578         1.56864
O         18.09995        50.27262         1.79402
H         17.44060        49.59249         2.04811
O         36.92116        35.12181         2.03726
H         37.17505        35.98193         2.43146
O         18.43636        31.57825         1.86389
H         18.04517        32.35838         2.32675
O         31.28458        29.42091         1.98895
H         31.61256        30.17530         2.52325
O         23.50898        31.43851        -1.74652
H         22.77074        31.79882        -2.28117
O         24.58084        37.84533         2.34727
H         23.69848        38.05861         2.72401
O         30.90551        44.62212         2.74782
H         29.99347        44.75255         3.10904
O         24.17438        31.47614         1.82367
H         24.83066        31.01364         2.38683
O         10.38827        29.34664        -1.28126
H          9.76617        29.67757        -1.96229
O         19.94398        25.49313        -1.61324
H         19.59728        24.71688        -2.11503
O         15.46549        28.66668        -1.29397
H         15.60588        29.56056        -1.68970
O         24.86346        52.36939        -1.97914
H         24.18700        51.76698        -2.37017
O         27.01988        17.76226         1.98884
H         26.16723        17.35307         2.25424
O         33.03862        27.25169         2.26876
H         32.28693        27.82976         2.55343
O         19.21103        22.32337         1.89951
H         20.04107        22.04247         2.34036
O         27.12223        50.85932        -1.68641
H         26.40158        51.44444        -2.04950
O         15.88667        40.71981         2.01212
H         15.07135        41.21181         2.27121
O         36.89470        34.08993        -1.47723
H         36.52998        33.29207        -1.91391
O         20.52951        36.53317        -1.36332
H         20.63828        35.74677        -1.94007
O         16.64431        35.45034        -1.16167
H         16.78516        36.38129        -1.43725
O         37.86662        28.96351        -1.72170
H         37.94065        29.91147        -1.96428
O         17.38943        33.94775         2.10830
H         16.75210        34.53571         2.57072
O         11.79505        31.12253         2.73936
H         10.97845        30.60667         2.94986
O         25.70246        12.35567        -2.81152
H         24.94450        11.99069        -3.32019
O         23.20443        27.91601         2.55185
H         23.41596        27.10750         3.07162
O         38.16422        31.69527         2.14744
H         37.96351        30.78496         2.45535
O         35.73442        28.70558         2.21783
H         34.94542        28.19731         2.52739
O         18.50058        14.25475         2.18642
H         17.79928        14.77358         2.63811
O         25.57696        46.10287         2.41802
H         25.66797        47.06246         2.65048
O         28.41707        20.24026         2.09593
H         27.86328        19.51171         2.46738
O         20.90140        15.65881         2.04983
H         20.12010        15.11651         2.33602
O         27.02479        35.63060        -2.04177
H         26.21626        35.23527        -2.44147
O         14.43641        43.65658        -2.29053
H         15.34247        43.45851        -2.61344
O         30.58153        33.51950         1.77216
H         30.26412        34.44409         1.88304
O         28.13690        44.71367         2.78128
H         27.25768        45.12867         2.97559
O         29.49877        16.97870        -2.06002
H         30.24756        17.59662        -2.21061
O         28.05882        35.69677         1.48992
H         27.23551        36.11587         1.82783
O         34.42594        39.65417        -1.71725
H         34.45416        40.59198        -2.00305
O         15.72866        37.65359         2.79146
H         14.94079        37.17661         3.13833
O         28.19738        32.05722         1.80963
H         29.04662        32.51899         2.03105
O         29.24226        26.91106        -1.84402
H         29.08438        27.89128        -2.01805
O         17.95161        33.12911        -1.44796
H         17.49282        33.96163        -1.71372
O         13.25831        42.05907         1.68820
H         12.39475        41.75177         2.03898
O         32.04867        20.70559         1.98048
H         32.85311        21.16928         2.30569
O         26.78566        10.13235        -3.68759
H         26.86152        11.12608        -3.67850
O         15.57213        23.01731        -1.69974
H         16.47415        23.26488        -2.02954
O         25.14434        43.60623        -1.40776
H         24.34720        43.49324        -1.98498
O         23.22882        50.10098        -1.70870
H         23.01592        49.16189        -1.93795
O         28.04123        14.67545        -2.41705
H         28.62039        15.42690        -2.69194
O         33.08529        37.43546         1.93075
H         33.86109        36.92210         2.24460
O         23.12515        49.06577         1.87337
H         23.85662        49.63734         2.18901
H          5.36799        31.00048        -1.56523
H          5.35228        33.45396        -1.81765
H          7.45341        26.81648         0.00444
H          6.37565        28.92861        -0.69489
H          6.49061        35.65508        -1.50071
H          7.63613        37.81880        -1.28020
H         10.59970        22.86576         2.26138
H          8.59600        24.63621         0.55670
H          8.80016        40.00640        -1.09317
H          9.98232        42.18518        -0.95565
H         12.33247        18.19696         0.66581
H         11.08446        20.34624         0.86007
H         11.07949        44.37135        -0.53767
H         12.37117        46.51891        -0.18801
H         14.84029        13.93077         0.25667
H         13.58583        16.07075         0.46829
H         13.61967        48.65611        -0.41356
H         14.93718        50.88420        -0.77024
H         17.37892         9.68171         0.37700
H         16.05060        11.80230         0.24252
H         16.10820        53.02025        -0.05278
H         17.39880        55.12716         0.00207
H         19.86049         5.47002         0.09240
H         18.61499         7.61314         0.30682
H         18.59128        57.25959        -0.35617
H         19.84576        59.31110        -1.03677
H         23.38471         2.21607         0.48265
H         21.19666         3.40714         0.51039
H         23.32507        62.51531        -1.91138
H         21.15185        61.34086        -1.73024
H         25.48123         3.43234        -0.09357
H         26.64592         5.53972        -0.67796
H         26.68661        59.38325        -0.66761
H         25.45853        61.40782        -1.33806
H         27.85444         7.66525        -0.80256
H         29.08766         9.71771        -1.11216
H         29.18825        55.15619         0.42735
H         27.95477        57.35750        -0.10947
H         30.32949        11.85889        -0.78958
H         31.51055        13.92705        -0.21737
H         31.71413        50.86307         0.39657
H         30.44264        53.01774         0.25679
H         32.79901        16.04406        -0.05645
H         34.03017        18.21150        -0.45941
H         34.16734        46.54850         0.66503
H         32.95915        48.68105         0.51121
H         35.22056        20.24497        -0.91124
H         36.39588        22.83065        -1.16780
H         36.64480        42.27258         0.48012
H         35.41023        44.41326         0.54493
H         37.70982        24.73778        -0.36151
H         38.96099        26.82713        -0.14271
H         39.07138        37.97208        -0.01473
H         37.88067        40.11515         0.26848
H         40.27377        29.05437        -0.19337
H         41.55772        31.17203         0.20179
H         41.53396        33.63106         0.27644
H         40.28313        35.78549        -0.09908
