         261
 CSIRO Nanostructure Databank - Neutral Graphene Oxide Data Set
C        -11.28514         0.75850        -0.21170
C        -10.02123         1.49859         0.03854
C         -8.83916         0.72603         0.50626
C         -7.65732         1.53430         0.96559
C         -6.36629         0.79945         1.06121
C         -5.13783         1.58140         0.71268
C         -3.82996         0.82426         0.70773
C         -2.59670         1.59685         1.09093
C         -1.29792         0.86667         1.19920
C         -0.01610         1.59382         0.85588
C          1.26407         0.82034         0.76097
C          2.43609         1.41042         0.02286
C          3.69583         0.62775        -0.13240
C          5.01605         1.32881        -0.45470
C          6.27644         0.71928         0.10106
C          7.56834         1.46018         0.00613
C          8.85706         0.65818        -0.00089
C         10.09038         1.36762        -0.44922
C         11.24050         0.54307        -0.92880
C         -9.87269         2.98846         0.30423
C         -8.63754         3.58933        -0.33653
C         -7.79592         3.04710         0.79730
C         -6.50512         3.81605         1.23584
C         -5.20451         3.08321         0.81769
C         -3.88208         3.82945         0.98714
C         -2.64741         3.02851         0.61256
C         -1.38679         3.70776         0.17595
C         -0.07972         2.93322         0.15693
C          1.22607         3.62558        -0.11710
C          2.54710         2.90816         0.07182
C          3.82417         3.59212        -0.33428
C          5.05045         2.80271        -0.77198
C          6.37844         3.55163        -0.92515
C          7.68378         2.81403        -0.67979
C          8.84240         3.63809        -0.17874
C          9.78005         2.75482        -0.98891
C         -8.59652         4.87690        -0.75876
C         -7.55117         5.80257        -0.26996
C         -6.49523         5.26289         0.66231
C         -5.18392         6.10850         0.83367
C         -3.85066         5.32911         0.93179
C         -2.58609         6.04543         0.42536
C         -1.36654         5.22370         0.03372
C         -0.01465         5.88564        -0.20162
C          1.25850         5.11806         0.01856
C          2.56590         5.83643        -0.12529
C          3.77020         5.07454        -0.62877
C          5.06089         5.80767        -0.85216
C          6.38965         5.05809        -0.89481
C          7.68287         5.86442        -0.55046
C          8.84950         4.98697        -0.10490
C         -7.46481         7.19023        -0.81500
C         -6.32723         7.92122        -0.65932
C         -5.14675         7.04854        -0.38728
C         -3.57661         8.59374         0.60051
C         -2.42361         7.56728         0.55913
C         -1.17934         8.17877         0.01063
C          0.04508         7.37148        -0.28872
C          1.32172         8.14706        -0.09623
C          2.58829         7.35636        -0.20504
C          3.81245         8.06537        -0.69033
C          5.10586         7.30809        -0.73645
C          6.38221         7.99508        -0.16386
C          7.37014         7.05450         0.31698
C         -6.14315         9.30984        -1.04942
C         -4.97798        10.01652        -1.01673
C         -3.66752         9.55256        -0.55496
C         -2.50703        10.11246        -0.99329
C         -1.14105         9.50197        -0.76436
C         -0.01021        10.39195        -0.17535
C          1.32534         9.63742        -0.27271
C          2.52129        10.27389        -0.24542
C          3.82033         9.56145        -0.47304
C          5.08171        10.11450         0.08056
C          6.18712         9.37647         0.33775
C        -11.28053        -0.58623        -0.31596
C        -10.15072        -1.44205         0.15517
C         -8.95030        -0.74144         0.80898
C         -7.65915        -1.49002         1.00916
C         -6.36758        -0.72473         1.03670
C         -5.10532        -1.45081         0.67586
C         -3.81245        -0.67629         0.70606
C         -2.57028        -1.38763         1.18339
C         -1.29619        -0.62535         0.93360
C         -0.01814        -1.39676         0.82628
C          1.28133        -0.66869         1.02891
C          2.53991        -1.46554         0.90794
C          3.73757        -0.83414         0.25150
C          5.04371        -1.54022         0.33759
C          6.32176        -0.76859         0.35131
C          7.57510        -1.54855         0.14030
C          8.75831        -0.79842        -0.36280
C          9.94954        -1.57972        -0.82523
C         11.21275        -0.80569        -0.97882
C         -9.91771        -2.76246        -0.41461
C         -8.87330        -3.64940         0.07612
C         -7.68143        -2.98481         0.81634
C         -6.38326        -3.72875         0.92850
C         -5.09033        -2.94240         0.77714
C         -3.81475        -3.65419         1.16831
C         -2.53662        -2.88015         1.36875
C         -1.15947        -3.64075         1.41564
C         -0.04402        -2.91537         0.65066
C          1.23455        -3.65306         0.37721
C          2.45797        -3.01366         1.04146
C          3.82038        -3.71110         0.88515
C          5.11205        -2.95891         0.82317
C          6.39883        -3.69821         0.51654
C          7.42752        -2.98996        -0.37742
C          8.75019        -3.75024        -0.44837
C          9.90817        -3.06505        -0.68401
C         -8.57991        -4.93677        -0.59898
C         -7.43160        -5.64575        -0.44081
C         -6.32152        -5.16073         0.42230
C         -4.93100        -5.65878         0.10356
C         -3.80304        -5.13285         0.94734
C         -2.52067        -5.92240         1.04605
C         -1.22542        -5.18116         1.20114
C          0.01666        -5.94405         0.76151
C          1.23665        -5.17031         0.35229
C          2.57296        -5.87458         0.25553
C          3.89272        -5.10718         0.27081
C          5.10082        -5.89429         0.81438
C          6.41043        -5.18560         0.53882
C          7.51165        -5.89116        -0.15771
C          8.64099        -5.21197        -0.51352
C         -7.17966        -6.86410        -1.33395
C         -5.97197        -7.72124        -0.89620
C         -4.71222        -6.87812        -0.72504
C         -3.29013        -7.52390        -0.81153
C         -2.58818        -7.40436         0.65656
C         -1.22257        -8.14250         0.68017
C          0.05565        -7.42015         1.21132
C          1.40579        -8.18941         0.85898
C          2.58496        -7.34384         0.42210
C          3.78753        -8.15940         0.83856
C          5.09991        -7.38594         0.94775
C          6.45131        -8.08723         0.69418
C          7.24379        -7.34987        -0.44771
C         -5.73919        -8.88756        -1.82601
C         -4.53674        -9.48744        -1.90877
C         -3.36084        -9.00606        -1.18622
C         -2.30334        -9.81504        -0.94619
C         -1.12160        -9.37139        -0.16641
C          0.19766        -9.89180        -0.56956
C          1.35837        -9.35671        -0.11369
C          2.65214        -9.94299        -0.43967
C          3.83557        -9.41216        -0.00348
C          5.11865       -10.06836        -0.16603
C          6.28381        -9.51594         0.23533
O          4.58391        -3.40161         2.09594
O         -6.51827        -4.86021         1.82170
O          2.13179        -0.89547         2.18731
O         -2.68054        -1.95956         2.50592
O         -1.89445        -5.76939         2.34764
O         -2.31389         3.11391        -0.79318
O          8.57599         2.54731        -1.87677
O         -4.34797         6.89941        -1.29780
O          4.17104         5.43451        -1.96663
O          0.48420         3.01156        -1.19579
O          0.42690        -3.15403        -0.71095
O          3.37853        -8.56900         2.19488
O         -4.18627         8.82251         1.62281
O          1.90612        -8.77898         2.12398
O          6.48682         4.33810        -2.14966
O          6.92984        -4.37803         1.66586
O          4.27149        -1.55263        -0.90436
O          2.57892        -6.80459        -0.90644
O         -7.07712         1.25162         2.25741
O         -1.36327        -9.44407         1.32967
O          3.48652         3.36103         1.07904
O          2.73560         0.79639        -1.23986
O        -10.01335        -1.23419         1.63113
O         -3.72989         4.62003         2.19942
O         -7.64253         5.94284         1.23215
O          9.82380         1.12450         0.97871
O          0.94189         1.59422         1.95692
O          6.88280        -2.91768        -1.65374
O         -4.13466        -4.58033         2.24640
O         -2.31968         5.66068        -0.95497
O         -3.61627         0.07092        -0.52559
O          6.80447         1.48713         1.24212
O         -5.31592         2.43343        -0.47302
O         -4.72367        -5.56547        -1.34699
O         -9.11722         3.20056         1.59156
O         -1.40803         8.13116         1.46443
O         -2.47196        -6.84762        -1.65569
O          6.08338         7.87951        -1.60150
O          7.15949        -1.20270         1.47589
O          5.06266        -6.51770         2.12352
O         -6.96577        -1.21671         2.27435
O          3.75110         8.97124        -1.82543
O         -9.00095         1.01928        -0.92818
O         -2.00345         1.33068         2.38830
O          0.30374        -5.71476        -0.63207
O          2.05844         5.44431         1.18693
O          8.94128        -1.04488        -1.78328
O          0.01417         6.57582        -1.50252
O          4.97493         1.80571        -1.82673
O         -0.69705        -0.84417        -0.36609
O         -5.14129        -2.28446        -0.53097
O          2.11291         7.85040         1.09820
O         -8.73716        -3.62370         1.54456
O         -3.48315        -8.05039         1.54980
H         -3.03148        -8.88373         1.84367
O         -6.30530        -8.25063         0.41692
H         -5.46975        -8.47368         0.88937
O         -0.68968        -3.49441         2.76600
H         -1.26158        -4.04701         3.34512
O         -5.35453         6.82648         2.04900
H         -5.30119         6.17911         2.78536
O          4.22479        -4.83497        -1.11005
H          3.83469        -5.54645        -1.66923
O         -6.47812         3.94678         2.65262
H         -7.32573         4.36003         2.92662
O         -8.33969        -7.69149        -1.36167
H         -8.36846        -8.16839        -0.50411
O          8.17426         6.37440        -1.81429
H          7.89496         5.74070        -2.51505
O         -0.28326        10.74360         1.17365
H         -0.47938         9.92993         1.68951
O         -0.66111         9.18056        -2.09214
H         -1.20669         8.45916        -2.47310
O          2.09657        -3.30481         2.41210
H          2.85319        -3.05352         2.99016
O         -0.03400        -7.39524         2.63157
H         -0.15696        -8.31680         2.94507
O          6.40471        -7.41534        -1.61103
H          6.78066        -6.83412        -2.30468
O          7.23569        -8.04756         1.88833
H          6.83348        -7.37350         2.48454
H         12.12463        -1.35786        -1.25342
H         12.17892         1.07532        -1.15067
H         10.62157         3.24999        -1.52389
H          9.82040         5.50845        -0.09102
H          7.88586         7.22138         1.27292
H          7.02915         9.83870         0.87418
H          5.04080        11.14747         0.45930
H          2.55720        11.37456        -0.22688
H          0.06176        11.33956        -0.76432
H         -2.54527        10.91660        -1.74691
H         -4.99716        11.03421        -1.44013
H         -7.03952         9.82182        -1.43411
H         -8.39427         7.64080        -1.19904
H         -9.46719         5.30826        -1.27744
H        -10.82064         3.56971         0.27291
H        -12.18949         1.33321        -0.46051
H        -12.19800        -1.10993        -0.62404
H        -10.43685        -3.01714        -1.35011
H         -9.32921        -5.30866        -1.31495
H         -7.00075        -6.49838        -2.37866
H         -6.60755        -9.29750        -2.36291
H         -4.41470       -10.39765        -2.51745
H         -2.31242       -10.86012        -1.29526
H          0.22105       -10.75343        -1.25336
H          2.65582       -10.86995        -1.03316
H          5.11461       -11.08839        -0.58045
H          7.21390       -10.09695         0.14350
H          8.21032        -7.89517        -0.63600
H          9.48870        -5.76795        -0.94740
H         10.85534        -3.61244        -0.81607
