         276
 CSIRO Nanostructure Databank - Neutral Graphene Oxide Data Set
C        -11.15125         0.38185         0.03556
C         -9.91269         1.15463        -0.02245
C         -8.65279         0.38327        -0.26692
C         -7.37354         1.15645        -0.25025
C         -6.08800         0.65384         0.41192
C         -4.77745         1.08171        -0.34796
C         -3.56698         0.61122         0.49775
C         -2.26368         1.36552         0.49952
C         -0.94974         0.69266         1.01488
C          0.37514         1.47684         0.52688
C          1.58597         0.79660        -0.08199
C          2.67809         1.48362        -0.56630
C          3.71705         0.88754        -1.51814
C          5.13338         1.53906        -1.48390
C          6.39910         0.76840        -1.22268
C          7.54640         1.52443        -0.55102
C          8.86003         0.73021        -0.53506
C         10.03791         1.47363         0.07360
C         10.95404         0.70210         0.94588
C         -9.89606         2.46176         0.36455
C         -8.61775         3.17807         0.77923
C         -7.49248         2.67766        -0.29649
C         -6.11656         3.33737        -0.15368
C         -4.80706         2.62041        -0.41825
C         -3.53220         3.39819        -0.30295
C         -2.23265         2.65295        -0.29676
C         -0.98810         3.46802        -0.44347
C          0.27939         2.95643         0.17715
C          1.53920         3.71692        -0.11860
C          2.79425         2.96034        -0.42558
C          3.92451         3.75725        -1.02451
C          5.17485         3.05393        -1.45104
C          6.51051         3.77030        -1.32733
C          7.79726         2.94016        -1.12569
C          8.83946         3.66416        -0.24283
C          9.88034         2.90293         0.31829
C         -8.53569         4.65178         0.60364
C         -7.32637         5.33073         1.16196
C         -6.03283         4.65946         0.55103
C         -4.80108         5.44602         0.25217
C         -3.58428         4.76228        -0.28333
C         -2.34606         5.63828        -0.27833
C         -1.11709         4.93440        -0.96470
C          0.10766         5.81222        -0.70105
C          1.40953         5.19262        -0.34261
C          2.67569         5.97365        -0.47755
C          3.95013         5.23084        -0.69820
C          5.18705         5.99981        -1.06633
C          6.48255         5.22854        -0.98277
C          7.47906         5.76440         0.01854
C          8.78702         5.03566         0.00712
C         -7.25345         6.84578         1.10132
C         -6.12580         7.55482         0.82860
C         -4.96727         6.92404         0.13820
C         -3.85587         7.73798        -0.42760
C         -2.59414         7.01140        -0.94729
C         -1.31476         7.89290        -0.81979
C          0.04039         7.28738        -1.05824
C          1.29431         8.18022        -0.81693
C          2.61505         7.37815        -1.04971
C          3.84755         8.16276        -0.59156
C          5.17974         7.46433        -0.74824
C          6.36126         8.01855        -0.02606
C          7.48873         7.26910         0.16084
C         -6.04893         9.00533         0.99057
C         -5.00710         9.75303         0.57062
C         -3.80899         9.25322        -0.21379
C         -2.50580         9.64381         0.44482
C         -1.33373         9.05912         0.11546
C         -0.14038         9.21894         1.07380
C          1.23245         8.94920         0.48701
C          2.35714         9.49347         1.00538
C          3.70176         9.26296         0.41012
C          4.94439         9.72652         1.07618
C          6.16787         9.24444         0.75000
C        -11.15930        -0.94369         0.33752
C         -9.94483        -1.72580         0.48849
C         -8.65988        -1.13443        -0.06139
C         -7.46607        -1.58724         0.76071
C         -6.18303        -0.82272         0.78842
C         -4.88159        -1.56772         1.01583
C         -3.56239        -0.82692         0.98416
C         -2.23806        -1.67070         1.08123
C         -0.78497        -0.88639         0.91218
C          0.18027        -1.39566        -0.16919
C          1.56552        -0.73077        -0.17293
C          2.54608        -1.35424        -1.17005
C          3.81048        -0.63213        -1.44962
C          5.10541        -1.39849        -1.40493
C          6.37297        -0.71723        -1.02016
C          7.45583        -1.41297        -0.59440
C          8.84301        -0.80690        -0.41645
C          9.52160        -1.31362         0.84663
C         10.64024        -0.53998         1.37558
C         -9.93951        -3.01709         0.92037
C         -8.69465        -3.84189         1.02531
C         -7.40318        -3.08493         0.93048
C         -6.11903        -3.66384         0.46592
C         -4.92242        -3.02054         0.63366
C         -3.67553        -3.65367         0.08632
C         -2.35602        -2.94701         0.18687
C         -1.28391        -3.31969        -0.79543
C          0.04168        -2.63878        -0.71014
C          1.14018        -3.31630        -1.53386
C          2.49605        -2.71286        -1.31114
C          3.70111        -3.55303        -0.96037
C          5.03564        -2.89359        -1.26834
C          6.26516        -3.66037        -0.93521
C          7.61688        -2.93989        -0.65100
C          8.31313        -3.53370         0.63723
C          9.23281        -2.54708         1.32045
C         -8.84468        -5.31572         0.77650
C         -7.88453        -6.22920         0.69979
C         -6.18177        -4.83829        -0.44839
C         -4.98141        -5.75717        -0.30824
C         -3.85328        -4.86466        -0.80894
C         -2.65725        -5.48892        -1.45185
C         -1.37139        -4.69630        -1.43280
C         -0.10185        -5.45765        -1.45259
C          1.08820        -4.81798        -1.35694
C          2.30905        -5.70940        -1.29312
C          3.65437        -5.05007        -1.23668
C          4.80933        -5.83324        -0.76971
C          6.08505        -5.05843        -0.40588
C          6.65701        -5.34877         0.93208
C          7.27734        -4.13760         1.59729
C         -7.07836        -7.27840         0.63115
C         -6.45596        -7.83060        -0.67064
C         -5.16269        -7.06438        -1.04341
C         -3.91925        -7.72182        -1.56694
C         -2.61892        -6.97423        -1.50485
C         -1.44202        -7.64642        -1.36167
C         -0.08378        -6.97899        -1.46178
C          0.88655        -7.51654        -0.42333
C          2.06506        -6.83476        -0.30504
C          3.21033        -7.55617         0.28770
C          4.59310        -7.12171        -0.00780
C          5.77117        -7.67290         0.81620
C          6.46567        -6.53408         1.54452
C         -6.16953        -9.31009        -0.54311
C         -5.06300        -9.90901        -0.99785
C         -3.89496        -9.24316        -1.71800
C         -2.60339        -9.81621        -1.18700
C         -1.46904        -9.07719        -1.02813
C         -0.33066        -9.62994        -0.31260
C          0.73229        -8.87133         0.08599
C          1.83870        -9.51754         0.91358
C          2.86066        -8.47848         1.43344
C          4.08292        -9.13255         2.03120
C          5.34111        -8.75573         1.77932
O         -1.59034        -3.47698        -2.22823
O         -3.70057        -4.78904        -2.22656
O          5.28854         6.97587        -2.13126
O         -0.04436        -1.25695         2.05923
O          2.53485         3.43449         0.91892
O          3.81678         9.53452        -1.05084
O         -3.25267         1.53669         1.56617
O          5.81429        -3.55598        -2.30201
O          6.02577         1.11656        -2.57575
O         -0.70304         7.86292        -2.15967
O          8.44629        -3.17994        -1.73744
O          3.97935        -8.19096        -0.82004
O          0.50677        -7.36971        -2.71741
O         -4.99049         7.36182        -1.27488
O         -4.88702        -7.06473        -2.45853
O         -7.89116        -3.52658         2.23247
O          4.49388        -1.05459        -2.68408
O         -5.54423         3.24779        -1.51167
O          6.10607        -6.00843        -1.49358
O         -7.09480        -0.88736         1.96012
O          3.56537         5.70503         0.64324
O         -1.45703         2.55328        -1.52371
O         -6.95670        -4.86949        -1.39653
O         -7.86259         0.63069        -1.51457
O          0.52489         5.77068         0.70448
O         -4.29569        -1.02861         2.23043
O          0.42816         2.53104         1.54709
O          6.85774         4.80136        -2.31594
O         -5.01380         4.82293         1.58207
O         -2.67118        -4.07502         1.08217
O          4.23303         3.58090        -2.43510
O          9.93247         1.16289        -1.37697
O          3.16694         1.18177        -2.81971
H          3.76163         0.75705        -3.47938
O         -8.02735         3.09470        -1.54065
H         -8.14207         2.29249        -2.10668
O          8.36258         2.75896        -2.42426
H          8.17300         3.57004        -2.94874
O         -3.86445         9.85907        -1.52826
H         -4.62208         9.44226        -1.99512
O          2.37290        -6.37408        -2.60658
H          2.86540        -7.22405        -2.50049
O         -2.03889         5.93248         1.09667
H         -1.87843         5.10043         1.59131
O          6.89024         5.30663         1.31021
H          7.29173         5.83372         2.03422
O          2.26550        -1.15785         1.05619
H          1.53677        -1.21155         1.75883
O         -2.24978        -2.14394         2.41389
H         -1.31370        -2.09258         2.74635
O          2.52023       -10.49939         0.13191
H          3.08422       -10.02986        -0.52318
O          3.59360        -3.55475         0.52870
H          3.07467        -2.73723         0.80682
O         -4.73176        -6.10523         1.06737
H         -4.34643        -5.34092         1.54976
O         -4.00831        -9.56627        -3.12207
H         -4.64255        -8.92013        -3.50616
O         -8.30043         2.69305         2.05789
H         -7.81958         3.39671         2.56559
O          9.63052        -1.34061        -1.48687
H          9.25988        -1.04389        -2.34614
O         -8.50722        -1.78885        -1.34554
H         -8.07731        -1.15963        -1.96871
O         -1.24736         4.88678        -2.37595
H         -1.74196         4.07221        -2.62159
O         -2.84965         6.74978        -2.32342
H         -2.89548         7.60212        -2.80228
O         -4.70634         0.50047        -1.64765
H         -5.15129         1.10380        -2.28238
O          7.10831         1.65332         0.82354
H          7.72136         2.25403         1.30096
O          9.14199        -4.61194         0.18502
H          9.33288        -4.39192        -0.76969
O          6.26564        -3.14509         1.80915
H          5.51058        -3.54602         2.28818
O          6.72246        -8.27830        -0.07937
H          6.85489        -7.65740        -0.83489
O          1.31744         9.21128        -1.82836
H          0.46252         9.15994        -2.32319
O         -0.36660         8.28973         2.14825
H         -0.24357         7.37239         1.80930
O         -6.01999         1.38771         1.65309
H         -5.55736         0.82785         2.31962
O          0.90681        -3.04363        -2.94297
H         -0.03686        -3.26172        -3.14104
O          2.22902        -7.65613         2.44202
H          2.04277        -8.21393         3.22547
O         -7.28425         5.04712         2.59033
H         -6.34594         5.16124         2.87564
O          2.68589         7.17436        -2.47042
H          2.58919         8.06781        -2.87621
O         -1.03690         0.92480         2.41501
H         -0.53359         0.18137         2.84389
O         -7.38898        -7.66152        -1.74284
H         -7.42148        -6.69937        -1.95923
H         11.28601        -1.03772         2.11493
H         11.83123         1.22371         1.35673
H         10.56554         3.38848         1.03139
H          9.63460         5.49979         0.53928
H          8.30346         7.69205         0.77328
H          7.05942         9.66639         1.23929
H          4.86443        10.55832         1.79280
H          2.29886        10.12414         1.90678
H         -0.16850        10.24421         1.52089
H         -2.53237        10.39384         1.25077
H         -5.03960        10.84125         0.73532
H         -6.89441         9.49489         1.49841
H         -8.11406         7.37572         1.53930
H         -8.95815         5.06007        -0.32905
H        -10.85248         2.94787         0.61470
H        -12.10041         0.93580        -0.01247
H        -12.12016        -1.45525         0.49874
H        -10.88891        -3.48800         1.22352
H         -9.89042        -5.66613         0.68758
H         -6.79000        -7.78017         1.57308
H         -6.96469        -9.92628        -0.09393
H         -4.98330       -11.00440        -0.90410
H         -2.59851       -10.87730        -0.89252
H         -0.38464       -10.68609        -0.00794
H          1.38027       -10.05084         1.78915
H          3.89925        -9.95450         2.74201
H          6.16935        -9.29099         2.26934
H          6.87659        -6.70697         2.55133
H          7.75072        -4.43119         2.57438
H          9.80144        -2.93662         2.18135
