         275
 CSIRO Nanostructure Databank - Neutral Graphene Oxide Data Set
C         30.69047        31.50918        -0.34935
C         30.75636        32.67285        -0.91113
C         30.69937        35.85305        -1.35114
C         30.76719        37.08964        -1.40099
C         30.65824        40.27424        -1.23800
C         30.51161        41.50999        -1.19968
C         32.84315        29.08293         1.64404
C         31.84396        29.61388         1.10297
C         32.86052        31.71945         0.58325
C         31.60337        30.82394         0.39297
C         32.95587        33.04523        -0.14395
C         31.80893        33.57819        -0.84036
C         33.14170        35.80728        -0.99597
C         31.87543        34.97232        -1.31259
C         33.02914        37.28321        -0.79204
C         31.82694        37.99566        -1.05868
C         32.94144        40.16338        -0.70118
C         31.76911        39.40150        -0.98530
C         32.88460        41.62706        -0.62392
C         31.75047        42.35594        -1.44149
C         32.76525        44.58515        -0.99979
C         31.79798        43.81491        -1.11070
C         35.49234        27.31954         0.97543
C         35.32398        28.70032         1.30823
C         34.21538        29.25706         1.99027
C         35.35033        31.60264         0.63205
C         34.11084        30.95453         0.10220
C         35.32475        32.99133         0.55147
C         34.18578        33.69188        -0.00869
C         35.16487        35.90687         0.56505
C         34.42701        35.10491        -0.52126
C         35.32916        37.35730         0.14363
C         34.16027        38.02193        -0.32712
C         35.29533        40.17111         0.05819
C         34.12217        39.45730        -0.32971
C         35.19343        41.60205         0.34150
C         33.88960        42.23702         0.09494
C         35.30043        44.74935        -0.62332
C         34.00670        44.49003        -0.28821
C         35.81320        45.87963        -1.31878
C         37.87633        27.20776         1.10422
C         36.49240        26.60270         0.81875
C         37.75154        28.66764         0.52978
C         36.52989        29.44400         1.00748
C         37.81238        31.58459         0.76049
C         36.55573        30.85118         0.85140
C         37.81611        32.98204         0.82450
C         36.50261        33.69538         1.18391
C         37.76910        35.98068         0.93114
C         36.47680        35.22803         0.99624
C         37.77643        37.39809         0.47852
C         36.54070        38.07414         0.27261
C         37.73886        40.30296         0.16544
C         36.52677        39.51852         0.17970
C         37.74797        41.68504         0.10147
C         36.50669        42.47799         0.31924
C         37.84492        44.55862        -0.46338
C         36.50209        44.06103         0.17905
C         37.99072        46.14689        -0.42983
C         36.83583        46.58617        -1.36112
C         40.25714        24.42627        -0.22218
C         39.27759        25.20155         0.19423
C         40.25008        27.31100        -0.04391
C         39.02027        26.48469         0.46034
C         40.34875        28.64383         0.73776
C         39.05232        29.44626         0.65189
C         40.32035        31.56877         0.59532
C         39.05804        30.82688         0.66253
C         40.27181        33.01680         0.64368
C         39.06061        33.70333         0.77590
C         40.29369        35.97051         0.56600
C         39.05649        35.20043         0.93184
C         40.20226        37.41271         0.24792
C         39.00172        38.09400         0.26519
C         40.26725        40.28025         0.36249
C         39.02070        39.55952        -0.11247
C         40.27195        41.64976         0.46500
C         39.08363        42.37437        -0.14070
C         40.27740        44.53476         0.59870
C         39.01211        43.84369         0.22097
C         40.50011        45.87719        -0.03649
C         39.39676        46.57210        -0.78946
C         40.95575        48.43333        -1.16001
C         39.82059        47.94872        -1.14941
C         42.81691        24.62096        -0.70153
C         41.49150        25.00339        -0.34895
C         42.81285        27.28334        -0.12802
C         41.54713        26.50022         0.01953
C         42.74574        28.76771        -0.04562
C         41.58337        29.43326         0.31289
C         42.83053        31.63208         0.48851
C         41.52524        30.87227         0.42209
C         42.68399        33.00857        -0.16704
C         41.57607        33.80536         0.55174
C         42.69099        35.91028        -0.46125
C         41.34644        35.14510        -0.17507
C         42.67288        37.27023         0.31342
C         41.47693        38.12488        -0.12426
C         42.66769        40.15453         0.82894
C         41.51284        39.53189         0.45496
C         42.58350        41.51376         1.50141
C         41.47837        42.37779         0.88155
C         42.56676        44.50829         1.74981
C         41.51451        43.74746         0.92724
C         42.70487        46.01476         1.35743
C         41.62306        46.72977         0.53347
C         43.36080        48.35546        -0.10692
C         42.27349        47.81765        -0.90124
C         43.92220        25.19784        -0.71760
C         45.30283        27.35531        -0.42307
C         44.03709        26.69868        -0.88510
C         45.33284        28.77794        -0.19994
C         44.01842        29.48442        -0.33070
C         45.28562        31.68810         0.06969
C         44.01702        30.95365        -0.15470
C         45.26171        33.04558         0.06141
C         43.99958        33.78206        -0.09556
C         45.22465        35.92568         0.18030
C         43.95933        35.13927        -0.11494
C         45.17812        37.38826        -0.22749
C         43.92056        38.10462         0.08780
C         45.17088        40.28324         0.55460
C         43.98165        39.40764         0.87417
C         45.33258        41.51430         1.41801
C         43.96443        42.25394         1.67143
C         45.28629        44.50979         1.85607
C         43.94525        43.75685         1.84987
C         45.23980        46.04813         2.17516
C         44.01985        46.74963         1.59896
C         44.18396        47.92430         0.71840
C         47.69773        27.32978         0.06444
C         46.59677        26.82668        -0.23822
C         47.81874        28.76075         0.52788
C         46.49309        29.46386         0.17311
C         47.79224        31.65593        -0.11874
C         46.54908        30.95725         0.44768
C         47.78737        33.04204        -0.24063
C         46.56484        33.79219         0.26441
C         47.76201        35.93352        -0.28945
C         46.45950        35.17927        -0.37781
C         47.76091        37.39312         0.11770
C         46.46751        38.15022        -0.18174
C         47.71477        40.32025         0.40469
C         46.41452        39.62367         0.16058
C         47.66276        41.80323         0.46100
C         46.49326        42.39289         0.88787
C         47.73994        44.59928         0.90234
C         46.52094        43.81669         1.30709
C         47.48872        45.96792         1.21208
C         46.52430        46.62206         1.61489
C         50.25825        28.97902        -0.26285
C         48.99917        29.49427        -0.05027
C         50.20996        31.61886        -0.65799
C         49.00280        30.91494        -0.30501
C         50.15862        33.04867        -0.84504
C         48.97282        33.77665        -0.59690
C         50.19687        36.02018        -0.56979
C         48.96018        35.25981        -0.52761
C         50.23280        37.43240        -0.37209
C         48.91318        38.16772        -0.54866
C         50.10521        40.44366        -0.52065
C         48.95398        39.61884        -0.04654
C         50.05555        41.91905        -0.31399
C         48.91209        42.53110         0.17854
C         50.13511        44.56581         0.12492
C         48.86343        43.98771         0.43455
C         51.38176        29.50066        -0.56339
C         52.57414        31.75184        -1.00224
C         51.47281        30.87724        -0.75798
C         52.58112        32.97253        -1.21422
C         51.38445        33.81489        -1.25967
C         52.62347        36.12061        -0.79419
C         51.42148        35.31911        -1.04290
C         52.54759        37.32274        -0.46652
C         51.42892        38.19667        -0.36997
C         52.51756        40.60733        -0.45170
C         51.42176        39.65174        -0.61200
C         52.51355        41.83948        -0.45821
C         51.34039        42.73078        -0.79797
C         51.24642        44.09253        -0.15188
O         40.31574        45.68485        -1.50379
O         43.95314        42.86354         2.99670
O         33.83181        43.49486         0.71106
O         39.20978        44.30028         1.58107
O         51.25193        34.71861        -2.36062
O         35.85791        42.05820         1.55797
O         34.10280        30.13984        -0.80029
O         43.89210        30.39636        -1.49100
O         36.99851        35.86734         2.20707
O         39.16895        39.60348        -1.65339
O         46.49790        39.11095        -1.25605
O         42.96282        46.83424         2.57087
O         32.81859        35.31985        -2.35362
O         46.23872        43.88924         2.76216
O         44.35509        37.96873        -1.29578
O         50.64457        40.00338        -1.81229
O         48.66874        39.76742         1.37551
O         42.43931        26.67696         1.15651
O         39.99963        35.65793         1.97251
O         47.89270        37.37668         1.55341
H         48.70604        36.88821         1.79633
O         46.66648        31.13520         1.90778
H         47.29306        30.43946         2.23831
O         37.54295        28.46986        -0.91333
H         37.03066        29.22855        -1.26630
O         42.32572        32.74042        -1.52552
H         41.80641        33.50412        -1.87377
O         35.33042        35.03418        -1.64644
H         34.78184        34.82327        -2.43716
O         40.52169        28.29320         2.13340
H         40.68858        29.11528         2.63964
O         40.69591        34.85510        -1.43661
H         41.14765        35.42891        -2.11112
O         39.39464        42.35076        -1.56781
H         39.25267        41.42693        -1.89289
O         36.40893        44.55606         1.50975
H         35.87644        43.91041         2.03510
O         32.11931        42.21414        -2.79732
H         31.44902        42.65112        -3.36167
O         43.84096        27.03865        -2.25813
H         44.62332        26.75526        -2.77455
O         40.06129        27.59323        -1.42871
H         39.14725        27.95832        -1.55161
O         42.70116        47.05963        -1.96066
H         41.91526        46.69615        -2.42877
O         45.77994        41.08403         2.73551
H         45.76149        41.89253         3.30583
O         42.52612        36.96234         1.70207
H         43.42215        36.77563         2.07331
O         34.47895        30.18793         2.92081
H         33.69034        30.76315         3.08011
O         44.18757        38.95431         2.24787
H         44.56655        39.70127         2.77699
O         37.76590        44.16789        -1.83227
H         38.62671        44.35530        -2.26685
O         45.20896        46.14324         3.58018
H         45.05341        47.07501         3.83701
O         43.18707        31.71563         1.88771
H         42.75873        32.52426         2.26882
O         48.67240        38.14002        -1.96498
H         49.34921        38.71353        -2.39759
O         40.97433        47.65603         1.35126
H         41.59102        47.92856         2.07102
O         42.09692        41.22475         2.83082
H         42.18710        42.05408         3.35721
O         47.97984        28.77752         1.96606
H         47.34564        28.13656         2.35301
O         46.22342        34.93963        -1.78647
H         46.29761        35.78900        -2.27112
O         37.78179        46.69792         0.83636
H         37.04371        46.22965         1.29457
O         32.93270        32.02421         1.99891
H         33.26040        32.94307         2.11312
O         42.07444        34.08377         1.87990
H         41.42473        34.69196         2.32155
O         36.32571        33.45821         2.61245
H         36.83835        34.16147         3.07724
O         45.28871        36.05762         1.62643
H         45.72926        35.25043         2.00115
O         34.29429        35.89829         1.72236
H         34.82789        36.22071         2.48254
O         37.99195        39.00174        -2.23176
H         38.25892        38.06138        -2.37985
O         46.79517        33.91711         1.69764
H         46.73621        32.99711         2.07056
O         42.00584        44.49166         3.07126
H         42.44660        45.19703         3.59719
O         42.74105        36.07286        -1.89233
H         43.28512        36.87833        -2.09273
O         51.25683        42.84649        -2.18631
H         52.07576        43.25286        -2.53539
O         38.04888        27.27934         2.49979
H         38.45580        26.45138         2.82697
O         41.54720        38.26735        -1.56635
H         40.78579        38.82531        -1.85825
