         261
 CSIRO Nanostructure Databank - Neutral Graphene Oxide Data Set
C         -9.83302         0.73999         1.80010
C        -10.00239         1.41918         0.42916
C         -8.91677         0.90569        -0.55772
C         -7.64152         1.68847        -0.76496
C         -6.35996         0.91779        -1.03351
C         -5.05382         1.61712        -0.77827
C         -3.85860         0.80244        -0.34608
C         -2.51107         1.53106        -0.36952
C         -1.29764         0.68806         0.01706
C          0.03849         1.40693         0.01283
C          1.19880         0.79538        -0.77066
C          2.54719         1.50957        -0.44743
C          3.81511         0.71653        -0.18041
C          5.09185         1.45617         0.06464
C          6.31791         0.74492         0.53864
C          7.61046         1.49058         0.49863
C          8.84885         0.72945         0.15237
C         10.13926         1.48130         0.31158
C         11.23771         0.66615         0.89525
C         -9.93020         2.92622         0.57820
C         -8.79706         3.65724         0.42746
C         -7.48496         2.92868         0.16208
C         -6.31590         3.84157        -0.30931
C         -5.02161         3.11244        -0.48036
C         -3.91146         3.57214         0.46106
C         -2.54624         2.89062         0.34407
C         -1.25471         3.64469         0.44327
C          0.03563         2.87785         0.26039
C          1.28354         3.69467         0.16935
C          2.56263         2.96702        -0.08478
C          3.79849         3.65827         0.42107
C          5.09107         2.92878         0.36441
C          6.36566         3.67730         0.06143
C          7.65236         3.02535         0.53218
C          8.94482         3.70946         0.17241
C         10.11286         2.98043         0.34886
C         -8.79852         5.11201         0.57473
C         -7.65375         5.84862         0.61697
C         -6.33940         5.28773         0.14707
C         -5.05287         5.89030         0.72211
C         -3.78864         5.10445         0.64356
C         -2.58490         5.82425         0.07304
C         -1.27875         5.07624        -0.05445
C         -0.01273         5.82252        -0.41045
C          1.27551         5.17305         0.00283
C          2.59033         5.85767        -0.21300
C          3.80986         5.17677         0.36637
C          5.10965         5.91185         0.24468
C          6.37423         5.16019        -0.05884
C          7.69151         5.86899        -0.12417
C          8.85970         5.15936        -0.05180
C         -7.36831         7.11664        -0.17230
C         -6.32145         8.09031         0.35993
C         -5.02606         7.40535         0.69446
C         -3.71974         8.13261         0.49888
C         -2.57938         7.32748        -0.06735
C         -1.30561         8.06466        -0.46851
C         -0.02080         7.31316        -0.69958
C          1.31273         8.09952        -0.83100
C          2.58877         7.32876        -0.45528
C          3.79130         8.11500        -0.01430
C          5.12336         7.40240         0.04691
C          6.39628         8.11466        -0.31012
C          7.67139         7.31331        -0.63733
C         -6.24212         9.49236        -0.11510
C         -5.08831        10.19341        -0.11994
C         -3.75617         9.60038         0.16795
C         -2.55412        10.28390        -0.49505
C         -1.24076         9.54576        -0.31151
C         -0.04376        10.20117        -0.31635
C          1.26155         9.55063        -0.38064
C          2.45002        10.26549        -0.39251
C          3.77287         9.60223        -0.22229
C          5.05355        10.20030        -0.67325
C          6.21239         9.50980        -0.80329
C         -9.72612        -0.57737         2.10821
C         -9.66932        -1.65333         1.12375
C         -8.90785        -0.55513        -0.67567
C         -7.73579        -1.38389        -1.00414
C         -6.42204        -0.60481        -1.15385
C         -5.11110        -1.37477        -1.10986
C         -3.89665        -0.67855        -0.55114
C         -2.63324        -1.50624        -0.38896
C         -1.32333        -0.79166        -0.17365
C         -0.04920        -1.53424        -0.49123
C          1.23214        -0.75894        -0.66157
C          2.45354        -1.45894        -0.11321
C          3.69069        -0.71573         0.26210
C          4.96216        -1.46781         0.58946
C          6.26857        -0.75678         0.58144
C          7.51849        -1.54087         0.33857
C          8.80220        -0.78571         0.19832
C         10.08711        -1.55873         0.49054
C         11.15119        -0.66482         1.10260
C         -9.19225        -2.91725         1.16643
C         -8.93396        -3.62079        -0.16052
C         -7.72665        -2.91831        -0.84797
C         -6.41945        -3.65907        -0.98391
C         -5.12389        -2.88451        -1.11815
C         -3.84420        -3.70560        -1.02197
C         -2.59959        -2.99895        -0.55271
C         -1.32194        -3.83731        -0.23752
C         -0.00074        -3.02103        -0.19087
C          1.31254        -3.72138        -0.40083
C          2.58948        -2.92102        -0.44340
C          3.86410        -3.65546        -0.13523
C          4.98301        -2.98324         0.59626
C          6.25750        -3.71637         0.95026
C          7.59987        -2.95687         0.92967
C          8.78419        -3.75769         0.44931
C          9.68958        -2.85719         1.26815
C         -8.75323        -5.13103        -0.06549
C         -7.59117        -5.79812        -0.21222
C         -6.32459        -5.01933        -0.31105
C         -5.03438        -5.76816        -0.18037
C         -3.83682        -5.19326        -0.86048
C         -2.51724        -5.95474        -0.92764
C         -1.23110        -5.19144        -0.93809
C          0.08089        -5.94489        -0.87936
C          1.36119        -5.17514        -0.79553
C          2.65338        -5.91629        -0.57651
C          3.88545        -5.16684        -0.17809
C          4.97409        -5.97417         0.55553
C          6.31604        -5.22832         0.72563
C          7.59649        -5.92749         0.38792
C          8.82724        -5.09770         0.26920
C         -7.54781        -7.30823        -0.48213
C         -6.28015        -8.02333        -0.01802
C         -5.02166        -7.23284         0.17438
C         -3.69593        -7.96093         0.20955
C         -2.47443        -7.35480        -0.38678
C         -1.24466        -8.18708        -0.79626
C          0.01657        -7.38301        -0.42496
C          1.28257        -8.09259        -0.07572
C          2.57059        -7.41194        -0.43326
C          3.85697        -8.13263        -0.29578
C          5.12564        -7.26300        -0.34957
C          6.39779        -8.05588        -0.10849
C          7.56718        -7.37715         0.03409
C         -6.08032        -9.46082        -0.36587
C         -4.91302       -10.10270        -0.17412
C         -3.73648        -9.45538         0.53381
C         -2.38940       -10.14058         0.29780
C         -1.24864        -9.56005        -0.12493
C          0.04111       -10.34117        -0.38026
C          1.34237        -9.58565        -0.06292
C          2.53280       -10.21456         0.09685
C          3.84514        -9.48390         0.38704
C          5.12745       -10.19569        -0.00767
C          6.28248        -9.51347        -0.19347
O          0.82061        -5.57972        -2.08613
O         -7.35544        -3.59064        -2.08756
O          2.76018         2.53968        -1.46234
O          4.45390         5.69472         1.54801
O          7.08045        -5.83064         1.81449
O         -4.17443        -0.06204         0.76251
O          0.46119        -7.49272         0.96893
O         -2.93969        -2.38573         0.74004
O          3.17091        -8.11715        -1.56948
O         -7.20444        -0.95866        -2.31011
O         -7.06899         2.43269         1.39997
O         -5.86508        -7.59744         1.30805
O         -2.69564        -7.29468         1.05799
O         -6.56780         6.20626        -1.05580
O          5.23499        -3.46767         1.94825
O          8.09742        -1.34331        -0.98051
O         -4.35958         5.45756         1.93358
O         -3.98059        -4.57880        -2.18042
O         -3.01932         6.47401        -1.16548
O         -5.51456         1.38352        -2.13712
O          0.56399        -1.33774        -1.80995
O          3.70802        -5.56300        -1.56337
O        -10.01232        -1.12946        -0.17083
O          1.30008         4.58900         1.33855
O          6.28948         4.27363        -1.26529
O         -4.94341        -2.09937        -2.34513
O          2.88868         6.37551        -1.53555
O         -1.90548         3.15934         1.63935
O          6.98337         1.12497         1.77068
O         -5.61784         3.81916        -1.59332
O         -1.36438        -0.18112         1.16205
O         -3.42904         9.12477         1.51654
O          3.58181        -3.12528        -1.47615
O          7.88207         3.43131         1.87488
O          4.76972         0.94583        -1.27057
O          2.66369        -1.01212         1.25787
O          8.48877        -2.66100         2.14492
O          0.31585         1.89772         1.33432
O         -1.86517        -5.57711        -2.17308
O          5.58289        -1.05265         1.83585
O         -5.90014         7.91820         1.74434
O          3.65622         8.98226         1.13930
O          4.41465         3.15694         1.63448
O          0.77765        -3.46233         0.94909
O          5.99316         7.98179         1.07838
O         -5.53330        -4.92524         0.91829
O         -8.65519         1.70555        -1.77561
O         -1.27226        -8.44407        -2.16560
O          1.45703         8.56374        -2.15565
O          5.26958        -6.78037        -1.65493
O          9.59513         1.11819        -1.03371
O         -0.73448         5.05362        -1.41398
O         -0.88978         7.64938        -1.80737
O         -2.79014        10.38485        -1.90862
H         -2.41954         9.59278        -2.35363
O         -4.44250         3.02654         1.68557
H         -3.81408         3.22112         2.41535
O          7.83670         7.26064        -2.06382
H          7.30894         6.51546        -2.42024
O         -3.98740        -9.57551         1.95242
H         -3.49699        -8.84817         2.39458
O         -1.51819        -4.32216         1.10787
H         -1.65583        -3.55468         1.70807
O         -2.26963         1.84459        -1.76362
H         -3.05012         2.28824        -2.16145
O          0.86289         1.10455        -2.12595
H          1.61939         0.89732        -2.71314
O          4.46507        -6.30689         1.83235
H          5.21938        -6.34574         2.46410
O        -11.29739         1.07359        -0.08066
H        -11.43865         1.56122        -0.91845
O         10.65369        -2.01801        -0.75839
H          9.97498        -1.88890        -1.45897
O          0.04714       -10.65399        -1.77338
H         -0.36103        -9.87016        -2.25305
O         -7.62717        -7.49174        -1.89913
H         -8.42942        -7.04542        -2.23858
O          3.91254        -9.23239         1.81613
H          3.83403       -10.08838         2.28579
O        -10.06861        -3.43242        -1.02300
H         -9.79196        -3.66137        -1.93564
H         11.98990        -1.17577         1.60095
H         12.10338         1.21362         1.29971
H         11.08675         3.49172         0.27567
H          9.81119         5.69349        -0.20693
H          8.55135         7.87215        -0.22779
H          7.08446        10.00956        -1.25113
H          5.00857        11.23366        -1.05066
H          2.41730        11.36092        -0.26982
H         -0.04614        11.30222        -0.26497
H         -2.47001        11.32732        -0.09365
H         -5.09297        11.22754        -0.49641
H         -7.17274         9.97446        -0.45258
H         -8.21639         7.59970        -0.70959
H         -9.77829         5.61594         0.59361
H        -10.87223         3.42632         0.85245
H         -9.78816         1.43979         2.64885
H         -9.59820        -0.86069         3.16426
H         -8.89070        -3.38338         2.11345
H         -9.69756        -5.69682        -0.00828
H         -8.44357        -7.78642         0.00915
H         -6.91784        -9.97840        -0.85738
H         -4.82260       -11.15860        -0.47035
H         -2.34552       -11.18057         0.66428
H          0.02147       -11.30517         0.19533
H          2.56259       -11.31691         0.08165
H          5.13378       -11.29545        -0.06614
H          7.21269       -10.07119        -0.38811
H          8.51532        -7.92883         0.13664
H          9.79667        -5.61777         0.22697
H         10.53510        -3.33488         1.81261
