         341
 CSIRO Nanostructure Databank - Neutral Graphene Oxide Data Set
C          1.23737         3.37212         0.53205
C          0.03539         4.05103         0.68455
C          1.18429         6.21314         0.63917
C          0.00083         5.44944         0.73417
C          1.17413         7.66606         0.67474
C         -0.05943         8.39954         0.69294
C          1.11537        10.54906         0.70874
C         -0.09060         9.76743         0.68466
C          1.08949        11.95201         0.73910
C         -0.11394        12.73645         0.86521
C          1.06734        14.75581         0.01810
C         -0.11684        14.07861         0.65738
C          1.08539        16.26939         0.08069
C         -0.10204        16.98409        -0.05807
C          1.10237        19.09806        -0.24270
C         -0.10035        18.37574        -0.20497
C          1.11466        20.53135        -0.48602
C         -0.01223        21.35017        -0.46403
C          1.23923        23.46244        -0.84497
C          0.08094        22.77131        -0.53027
C          1.23206        24.94251        -0.82522
C          0.01686        25.65699        -0.72647
C          1.14071        27.81662        -0.47176
C         -0.02741        27.05070        -0.59800
C          1.12978        29.27249        -0.42772
C          3.68945         3.42058         0.26671
C          2.45622         4.09223         0.43332
C          3.65045         6.25298         0.40034
C          2.42507         5.52470         0.49761
C          3.63845         7.67339         0.50515
C          2.38668         8.38556         0.65349
C          3.59049        10.54511         0.67293
C          2.37630         9.83074         0.69152
C          3.62372        11.95700         0.64102
C          2.36767        12.72023         0.95776
C          3.55025        14.84120         0.33958
C          2.36907        14.13290         0.43970
C          3.55726        16.25712         0.14576
C          2.33480        16.97163         0.06177
C          3.58178        19.12684        -0.05364
C          2.34234        18.40218        -0.09828
C          3.56472        20.54966        -0.28477
C          2.38593        21.18127        -0.63840
C          3.75889        23.05655        -1.43522
C          2.36691        22.51911        -1.33508
C          3.69880        25.15730        -1.06171
C          2.42563        25.73672        -0.74171
C          3.60205        27.92689        -0.40345
C          2.39279        27.13832        -0.45750
C          3.56082        29.34579        -0.82482
C          2.25372        30.00934        -0.61378
C          6.11300         3.42157        -0.07208
C          4.91624         4.11724         0.17275
C          6.07335         6.31499         0.03047
C          4.89351         5.56996         0.24440
C          6.05616         7.72897         0.07150
C          4.85774         8.38059         0.39248
C          6.11821        10.57405         0.52115
C          4.88322         9.80062         0.86400
C          6.07304        11.96823         0.65638
C          4.84052        12.66120         0.61739
C          6.04945        14.89611         0.72220
C          4.86963        14.11158         0.20238
C          6.06927        16.25672         0.54319
C          4.87476        16.96295        -0.07666
C          6.03527        19.19371         0.27490
C          4.82113        18.46254         0.15321
C          6.09103        20.57932         0.04359
C          4.80962        21.36806        -0.00918
C          6.22016        23.34283        -1.04043
C          4.89859        22.59194        -0.88334
C          6.14388        24.80909        -0.60535
C          4.85529        25.36246        -0.35304
C          6.12536        27.87535        -0.35195
C          4.81504        27.39178         0.00611
C          6.16036        29.30633        -0.65358
C          4.88402        30.05067        -0.88462
C          8.59632         3.46372        -0.66753
C          7.40655         4.07124        -0.11119
C          8.51039         6.35726        -0.77579
C          7.38449         5.63765        -0.05217
C          8.57102         7.80489        -0.35657
C          7.26025         8.54720        -0.37594
C          8.56885        10.61659         0.27598
C          7.34069         9.91748         0.25469
C          8.60649        12.01254         0.63740
C          7.32242        12.63435         1.16107
C          8.56481        14.90878         0.98726
C          7.27117        14.16202         1.13474
C          8.50429        16.36104         0.75379
C          7.30537        17.01283         0.68198
C          8.55479        19.20963         0.52706
C          7.25599        18.51365         0.85679
C          8.56274        20.61650         0.32231
C          7.31515        21.31870         0.05189
C          8.53518        23.47175        -0.12925
C          7.36590        22.68746        -0.30661
C          8.55756        24.86892        -0.32756
C          7.29254        25.59262        -0.42566
C          8.56236        27.72315        -0.84707
C          7.26590        27.05711        -0.41057
C          8.59857        29.22739        -0.65794
C          7.36056        29.95839        -0.72980
C         11.01799         3.51435        -1.03990
C          9.81977         4.18423        -0.78725
C         11.02708         6.35669        -0.65579
C          9.81659         5.63112        -0.68583
C         11.02733         7.77921        -0.42557
C          9.77086         8.48543        -0.27128
C         11.01080        10.62128        -0.04271
C          9.79772         9.92562        -0.02697
C         11.04392        12.04563         0.25493
C          9.80584        12.71531         0.63985
C         11.00090        14.87473         0.59945
C          9.83898        14.17078         0.77107
C         10.94160        16.34552         0.24565
C          9.81072        17.07365         0.98964
C         11.00230        19.21210         0.50023
C          9.76857        18.53272         0.62541
C         11.01779        20.64116         0.45363
C          9.77876        21.32019         0.35105
C         11.03435        23.45957        -0.03047
C          9.75468        22.81985         0.49582
C         10.97862        24.94981         0.17503
C          9.80295        25.60593        -0.13129
C         11.01166        27.73347        -0.33161
C          9.81362        27.05065        -0.32087
C         11.05641        29.17499        -0.58370
C          9.79684        29.88727        -0.63059
C         13.53827         3.52759        -1.06992
C         12.26616         4.26564        -1.37249
C         13.48478         6.36259        -0.70903
C         12.26570         5.67430        -0.83678
C         13.48758         7.77993        -0.49379
C         12.24908         8.48195        -0.37030
C         13.47949        10.61026        -0.23554
C         12.26289         9.91799        -0.22869
C         13.46270        12.10976        -0.40441
C         12.23081        12.74802         0.18259
C         13.51740        14.93863         0.20021
C         12.32329        14.15790         0.70878
C         13.48218        16.31963         0.14017
C         12.26063        17.07621         0.34666
C         13.47073        19.25840         0.27630
C         12.23225        18.45739         0.41489
C         13.50579        20.62457         0.93109
C         12.24998        21.38515         0.57863
C         13.49430        23.50989         0.63459
C         12.28389        22.77749         0.47988
C         13.50169        24.94971         0.56969
C         12.18299        25.70724         0.67172
C         13.44793        27.74532         0.02459
C         12.25947        27.08385         0.06210
C         13.53956        29.04315        -0.74739
C         12.25518        29.81944        -0.69825
C         15.98792         3.50716        -0.79577
C         14.72403         4.20310        -0.88945
C         15.94696         6.35013        -0.66344
C         14.73260         5.65385        -0.77622
C         15.95755         7.77791        -0.51553
C         14.72016         8.48139        -0.42701
C         15.96098        10.58167        -0.12150
C         14.72397         9.90528        -0.27766
C         15.93796        12.01117         0.23677
C         14.72678        12.79651         0.04107
C         16.03420        14.87336         0.07303
C         14.76315        14.18665         0.11317
C         16.03370        16.31803        -0.19391
C         14.72551        17.06037        -0.20372
C         16.00909        19.22825         0.38055
C         14.73792        18.55027        -0.01405
C         15.99133        20.71773         0.41294
C         14.77654        21.39077         0.61451
C         15.99223        23.51574         0.80359
C         14.76138        22.80729         0.69801
C         15.90393        24.96703         1.25351
C         14.68642        25.65103         0.65083
C         15.96481        27.79777         0.28198
C         14.65941        27.15697         0.71590
C         15.94317        29.20443        -0.08253
C         14.74660        29.84630        -0.39767
C         18.45870         3.49263        -0.65241
C         17.18094         4.18748        -0.75592
C         18.40163         6.33846        -0.75064
C         17.19752         5.64060        -0.73702
C         18.42718         7.76089        -0.56587
C         17.19010         8.48047        -0.43810
C         18.46042        10.59976        -0.18077
C         17.19673         9.89432        -0.21348
C         18.51017        12.01582        -0.05205
C         17.28800        12.75864         0.28773
C         18.51269        14.90854        -0.07867
C         17.25761        14.21057         0.07763
C         18.51814        16.36246        -0.05756
C         17.30902        17.03786        -0.05168
C         18.52644        19.24473        -0.07591
C         17.28888        18.48294         0.23907
C         18.47982        20.74790         0.02324
C         17.20905        21.43134         0.39477
C         18.50046        23.51537         0.81858
C         17.20471        22.81139         0.69622
C         18.49909        25.00752         0.95120
C         17.23151        25.83109         1.20726
C         18.41735        27.84823         0.26879
C         17.16754        27.13337         0.42602
C         18.39289        29.27044         0.08830
C         17.16309        29.92899        -0.08042
C         19.62926         4.14937        -0.76023
C         20.89758         6.32542        -0.59926
C         19.67658         5.61229        -1.11227
C         20.88456         7.66168        -0.39203
C         19.66277         8.44376        -0.46284
C         20.89376        10.61134        -0.44728
C         19.68061         9.87544        -0.35076
C         20.91103        11.98992        -0.40442
C         19.71922        12.73481        -0.19689
C         20.94980        14.93576        -0.09974
C         19.72303        14.19334        -0.12358
C         20.97981        16.30669        -0.02513
C         19.78361        17.09352        -0.01631
C         20.98886        19.30648        -0.07665
C         19.80848        18.50583        -0.02820
C         20.96753        20.68412        -0.00523
C         19.77024        21.46083         0.17134
C         20.97790        23.60869         0.57094
C         19.76446        22.82408         0.43076
C         20.95676        24.96172         0.55270
C         19.67091        25.68120         0.23891
C         20.85142        27.93338         0.33774
C         19.67390        27.18846         0.36402
C         20.82129        29.33985         0.22246
C         19.61965        29.99888         0.07516
O         14.02663        19.26349        -1.08119
O          7.73837         4.90798         1.09747
O          4.76284        26.21330         0.77251
O         16.67460        18.69623         1.58251
O          7.95227        14.66656         2.33976
O         18.77042        24.20154         2.12027
O          3.78349        24.27047        -2.16836
O         15.32382        16.65526        -1.47520
O         16.62874        12.29804         1.50636
O         18.36807        20.06667        -1.28723
O         13.38987        12.33915        -1.86659
H         12.58074        11.88864        -2.19096
O         11.02897        23.24412        -1.47423
H         11.89414        23.53047        -1.83393
O          6.56768        23.33911        -2.45411
H          5.84412        23.80739        -2.92604
O          5.12656        16.83447        -1.54490
H          4.43665        17.35953        -2.00631
O          7.09447        18.69882         2.31348
H          7.87780        18.28632         2.74202
O          1.98545        22.21883        -2.72400
H          2.15157        23.03868        -3.23897
O          4.99329         9.67226         2.34866
H          5.49317        10.45381         2.67678
O         11.98422        25.89213         2.11178
H         12.68576        26.51952         2.40933
O          8.09645         6.33587        -2.20924
H          8.90612         6.47398        -2.74722
O         12.57787        14.03059         2.16082
H         11.92613        13.39152         2.52043
O         12.25664         4.42089        -2.86724
H         13.10287         4.85754        -3.10693
O         15.54558        24.87457         2.67926
H         16.38962        24.73392         3.16975
O          6.98424         8.81902        -1.80097
H          7.15431         7.96838        -2.27868
O         10.56473        16.39120        -1.16504
H         11.34624        16.13741        -1.70051
O         13.50023        20.38770         2.36975
H         13.45223        21.25711         2.82045
O         10.05105        17.02170         2.42129
H          9.88069        16.10521         2.72867
O          4.63208        21.86987         1.36700
H          4.70226        21.10028         1.97204
O          4.21294        29.66521        -2.12156
O          9.69681        23.09175         1.92374
H          8.87682        22.68968         2.27907
O          8.60179        27.51673        -2.30590
H          9.35505        28.03811        -2.65611
O         13.72928        28.63952        -2.16767
H         12.91935        28.15563        -2.43709
O          5.08295        14.03843        -1.25508
H          5.16892        14.97072        -1.58397
O         14.50031        27.45369         2.16420
H         14.82388        26.65223         2.65208
O          2.43099        12.87408         2.43810
H          2.48463        11.97127         2.82041
O         19.37719        25.43489        -1.18196
H         20.07746        25.86740        -1.71462
O         19.77416         5.66583        -2.58566
H         19.80242         6.61370        -2.83644
O         17.46071        26.33884         2.56060
H         16.83633        27.07995         2.71749
O          0.94879        14.43407        -1.42721
H          1.77750        14.73095        -1.86089
O          7.29033        12.23645         2.58113
H          7.71715        12.97760         3.07699
H          1.25434         2.27378         0.48781
H         -0.90439         3.48682         0.76504
H         -0.97192         5.94367         0.85698
H         -1.01264         7.85419         0.68751
H         -1.06222        10.28007         0.67597
H         -1.04659        12.24225         1.17927
H         -1.04229        14.64952         0.82032
H         -1.06332        16.45276        -0.08494
H         -1.05866        18.89776        -0.32944
H         -1.00256        20.91858        -0.26107
H         -0.83479        23.32171        -0.27146
H         -0.94292        25.12715        -0.78952
H         -1.00521        27.55439        -0.59501
H          0.15708        29.77626        -0.31950
H          3.69481         2.32159         0.21457
H          2.19987        31.10626        -0.67525
H          6.05915         2.36244        -0.36519
H          4.92806        31.15250        -0.73219
H          8.55425         2.41424        -0.99305
H          7.39542        31.05091        -0.86044
H         11.02760         2.41556        -1.09638
H          9.81846        30.98795        -0.62944
H         13.54373         2.43084        -1.16517
H         12.28343        30.90562        -0.87410
H         15.98187         2.40669        -0.79776
H         14.75010        30.92578        -0.61195
H         18.44052         2.40821        -0.46370
H         17.14524        31.01334        -0.26352
H         20.58359         3.60697        -0.68010
H         21.83748         5.75997        -0.51124
H         21.81557         8.16692        -0.09701
H         21.84123        10.07831        -0.60394
H         21.87091        12.50824        -0.52937
H         21.90589        14.39522        -0.11093
H         21.95477        16.81186         0.01395
H         21.96748        18.81110        -0.15264
H         21.93140        21.21191        -0.02692
H         21.93747        23.08635         0.69795
H         21.89469        25.52050         0.67813
H         21.82862        27.43528         0.39821
H         21.76649        29.90010         0.21661
H         19.59071        31.09019        -0.05381
