         344
 CSIRO Nanostructure Databank - Neutral Graphene Oxide Data Set
C          1.42593         3.59723        -1.94669
C          0.23945         4.32838        -2.19513
C          1.44416         6.48696        -2.26156
C          0.21051         5.70279        -2.24538
C          1.46403         7.94807        -2.03510
C          0.28549         8.67105        -2.01312
C          1.45396        10.79819        -1.64997
C          0.27093        10.07316        -1.92770
C          1.40256        12.23865        -1.47881
C          0.21875        12.97181        -1.44500
C          1.33202        15.09073        -0.83411
C          0.18354        14.34227        -1.13134
C          1.28231        16.42373        -0.32322
C          0.08080        17.06566         0.00893
C          1.18432        19.20872         0.49118
C          0.01716        18.42516         0.33468
C          1.16916        20.60609         0.60814
C         -0.04534        21.35321         0.66701
C          1.16723        23.46194         0.99200
C         -0.05228        22.72194         0.78548
C          1.14140        24.93406         1.07908
C         -0.05477        25.67121         1.18744
C          1.10416        27.74114         0.64859
C         -0.07895        27.04680         0.95702
C          1.11082        29.13461         0.19904
C          3.78455         3.58148        -1.21157
C          2.63544         4.25261        -1.68667
C          3.89058         6.43831        -1.41479
C          2.73204         5.70032        -1.94726
C          3.97990         7.84629        -1.66138
C          2.78702         8.69158        -2.09100
C          3.79930        10.81699        -0.91869
C          2.67580        10.09332        -1.45869
C          3.86378        12.20528        -0.98184
C          2.67675        12.96613        -1.37736
C          3.85126        15.08964        -0.43642
C          2.64882        14.46258        -1.05048
C          3.80265        16.44138        -0.07497
C          2.55047        17.25481        -0.32981
C          3.73690        19.24391         0.62679
C          2.46674        18.41940         0.66120
C          3.70964        20.64451         0.76538
C          2.44769        21.39618         0.43032
C          3.61674        23.54817         1.37977
C          2.37161        22.78566         0.99937
C          3.63241        24.86408         0.59223
C          2.34636        25.63801         0.84195
C          3.59251        27.73901         0.28598
C          2.32121        27.02480         0.66281
C          3.54637        29.25318         0.57961
C          2.25550        29.83096         0.04586
C          6.15816         3.57694        -0.55153
C          4.96773         4.27741        -0.88577
C          6.13821         6.46996        -0.33284
C          4.97700         5.71935        -0.92213
C          6.33842         7.83147        -0.95591
C          5.28556         8.39985        -1.71684
C          6.24380        10.73225        -0.22603
C          4.88277        10.14927        -0.12958
C          6.30580        12.17355        -0.28435
C          5.17132        12.96160        -0.89744
C          6.24287        15.03765         0.05908
C          5.06680        14.36870        -0.33265
C          6.22439        16.41510         0.36428
C          4.98497        17.12224         0.32477
C          6.23687        19.30791         0.45300
C          4.95177        18.53976         0.56057
C          6.14445        20.67742         1.05725
C          4.93580        21.35987         1.03634
C          6.10531        23.52879         1.25318
C          4.92627        22.80533         1.22830
C          6.08719        24.99706         1.18301
C          4.88238        25.63827         0.92859
C          6.11489        27.86142         0.78435
C          4.80950        27.08914         0.91349
C          6.04043        29.21777         0.17778
C          4.82454        29.87466         0.06719
C          8.59112         3.51233        -0.18102
C          7.39206         4.23588        -0.36875
C          8.62119         6.37243        -0.26585
C          7.43319         5.68860        -0.35852
C          8.64265         7.81540        -0.13451
C          7.47027         8.55122        -0.45131
C          8.65322        10.62671         0.20043
C          7.43568         9.97641        -0.18991
C          8.57311        12.04032         0.59870
C          7.43247        12.83614         0.12022
C          8.71009        14.95843         0.68606
C          7.56935        14.32444        -0.08697
C          8.67579        16.39319         0.90915
C          7.45884        17.12104         0.69995
C          8.65405        19.21699         1.13357
C          7.45360        18.51507         0.85152
C          8.66002        20.64704         1.28357
C          7.36675        21.35877         1.60419
C          8.56876        23.53723         1.37610
C          7.39080        22.84963         1.31780
C          8.63912        25.05462         1.47865
C          7.32622        25.73327         1.13990
C          8.56000        27.73858         0.32061
C          7.35307        27.07436         0.74936
C          8.48494        29.07390        -0.20183
C          7.25810        29.77155        -0.29576
C         11.03196         3.46865         0.12302
C          9.84561         4.15728        -0.09584
C         11.00409         6.27525         0.51932
C          9.93698         5.64531        -0.37410
C         11.05795         7.77749         0.39759
C          9.86262         8.49371         0.20854
C         11.09146        10.61888         0.70218
C          9.85618         9.92999         0.36649
C         11.11557        12.02473         0.88907
C          9.84683        12.75652         0.95489
C         11.07443        14.85996         1.46461
C          9.84529        14.23511         0.94194
C         11.06877        16.34311         1.67371
C          9.84814        17.08336         1.28186
C         11.12466        19.21256         1.35794
C          9.87028        18.50016         1.29597
C         11.11708        20.63370         1.27470
C          9.86132        21.33071         1.35964
C         11.14766        23.53793         1.33226
C          9.85269        22.80369         1.52948
C         11.12594        24.96262         0.91709
C          9.78624        25.57395         0.56998
C         11.00882        27.75077         0.06187
C          9.81326        27.08255         0.38829
C         10.92077        29.02611        -0.60696
C          9.67020        29.63439        -0.74209
C         13.49940         3.44949         0.08715
C         12.30803         4.14740         0.15591
C         13.51509         6.30737         0.40620
C         12.32451         5.59413         0.27931
C         13.49822         7.71383         0.69260
C         12.29379         8.44814         0.63848
C         13.55241        10.58462         0.91836
C         12.30918         9.88824         0.77653
C         13.57108        12.01044         0.98413
C         12.34108        12.73573         1.03785
C         13.57718        14.86680         1.25921
C         12.36184        14.14710         1.26796
C         13.60455        16.30532         1.33017
C         12.39886        17.07439         1.84734
C         13.57217        19.19311         1.22623
C         12.35276        18.50838         1.38625
C         13.56542        20.60793         1.12006
C         12.35944        21.33289         1.18017
C         13.57101        23.46176         0.83122
C         12.39253        22.77901         1.10391
C         13.63914        24.97326         0.88331
C         12.28320        25.62487         0.70388
C         13.58052        27.63537         0.06419
C         12.28968        27.13042         0.62717
C         13.33299        29.49686        -1.12323
C         12.00433        29.61905        -1.39901
C         16.03977         3.41814         0.07872
C         14.77601         4.18535        -0.20499
C         15.96814         6.25587         0.56184
C         14.78329         5.59738         0.33783
C         16.01800         7.68888         0.75223
C         14.75690         8.38549         1.18691
C         16.01338        10.55103         0.90193
C         14.78452         9.86999         0.94826
C         16.03727        11.98706         0.95405
C         14.81175        12.71259         1.04413
C         16.05633        14.82983         1.12883
C         14.81855        14.13942         1.12271
C         16.06286        16.28729         1.03846
C         14.79835        17.01272         1.11779
C         16.00805        19.15890         0.76566
C         14.81761        18.45334         1.09166
C         16.03932        20.55651         0.66118
C         14.87432        21.34917         1.18465
C         15.92858        23.38229         0.13282
C         14.78710        22.74525         0.63988
C         15.81708        24.75517        -0.34377
C         14.70331        25.51180        -0.08085
C         15.86404        27.69423        -0.95525
C         14.63785        26.92858        -0.42352
C         15.59135        28.85567        -1.94224
C         14.45981        29.65341        -2.00156
C         18.48930         3.35539         0.38960
C         17.20307         4.04206         0.37859
C         18.46232         6.21230         0.32234
C         17.23916         5.49100         0.80840
C         18.38417         7.67254        -0.03098
C         17.19246         8.38853         0.56046
C         18.47143        10.51588         0.57953
C         17.24673         9.82289         0.70992
C         18.51653        11.94723         0.76336
C         17.27829        12.68310         0.96346
C         18.54333        14.82072         1.24859
C         17.26851        14.09632         1.09297
C         18.53535        16.31812         1.13598
C         17.24428        16.98303         0.88919
C         18.51205        19.14960         0.35638
C         17.21240        18.37365         0.30831
C         18.47305        20.54983         0.14635
C         17.21396        21.27072         0.25764
C         18.41448        23.46845        -0.18334
C         17.15876        22.66289         0.03318
C         18.22377        24.64470        -1.11165
C         16.85504        25.24673        -1.31721
C         17.95476        27.23369        -2.27657
C         16.92141        26.74729        -1.50175
C         17.84672        28.53699        -2.91740
C         16.65750        29.23912        -2.81768
C         19.64686         4.06111         0.32890
C         20.86291         6.24018        -0.05481
C         19.64141         5.51587         0.19469
C         20.88598         7.61714        -0.01910
C         19.69899         8.38897         0.14738
C         20.91948        10.53078         0.24254
C         19.70107         9.79052         0.31775
C         20.93801        11.89369         0.40258
C         19.74899        12.62134         0.67528
C         20.97500        14.86532         0.46466
C         19.83792        14.07056         0.97498
C         20.96636        16.21106         0.38356
C         19.81671        17.04328         0.79049
C         20.93914        19.19580         0.15491
C         19.74646        18.47272         0.36986
C         20.90563        20.54570        -0.13967
C         19.68011        21.25960        -0.14849
C         20.71860        23.29127        -1.13065
C         19.62980        22.64343        -0.51952
C         20.59057        24.55277        -1.69402
C         19.30880        25.19215        -1.77497
C         20.10977        26.90830        -3.40158
C         19.14034        26.43124        -2.54311
C         19.98318        28.18117        -4.03259
C         18.89794        28.98002        -3.78798
O          5.41063        27.74202         2.07459
O          2.90289        13.99725        -2.42995
O         19.38809        14.35649         2.34263
O         10.61790        23.29636         2.70792
O         13.69281        29.03246         0.16532
O          8.93635        12.25698         2.01762
O          4.58953         9.28029         0.69960
O         10.85579        15.43399         2.81719
O          2.40111         6.09147        -3.32251
O         19.36160        16.93102         2.18587
O         15.15517        21.51658         2.62999
H         14.54762        22.21045         2.96743
O         12.31602        27.56561         2.03911
H         12.49907        28.53175         2.02928
O          7.94912        14.48576        -1.49784
H          7.21318        14.09119        -2.03359
O         14.70824         8.22189         2.66515
H         14.02898         8.84413         3.00358
O         17.37309         5.46175         2.27707
H         16.49878         5.22444         2.65227
O          8.92657        25.40120         2.85058
H          9.64566        24.79585         3.16158
O          6.42718        19.55227        -1.01047
H          5.60119        19.96926        -1.33934
O         14.76399         4.34351        -1.68017
H         13.95769         4.85517        -1.90798
O         16.47862        28.33312         0.20395
H         15.79853        28.93572         0.58061
O         16.38986        24.73133        -2.63024
H         17.05874        24.99455        -3.29904
O          2.67547        17.84325        -1.65939
H          2.71403        17.10907        -2.30888
O          3.75699        27.58170        -1.15213
H          3.67656        26.61921        -1.35353
O          3.03981         8.97816        -3.53650
H          2.91455         8.11500        -3.99883
O         14.08362        25.31250         2.23399
H         13.64381        26.15784         2.49029
O          5.51515         9.48068        -2.50329
H          4.71234         9.62845        -3.06794
O         18.70621        24.07006         1.14534
H         19.51310        24.61915         1.04368
O         10.40361         5.80716        -1.74514
H          9.73007         5.41707        -2.34054
O          2.39967        17.81034         1.98104
H          2.35146        18.52712         2.64698
O         12.64548        17.18096         3.28495
H         12.19522        16.40588         3.69985
O          5.81601         6.72284         1.08231
H          5.30795         7.57105         1.12581
O          9.50371        25.05064        -0.76876
H          8.65134        25.43547        -1.06626
O         16.99805        18.14002        -1.14447
H         16.90660        19.02056        -1.56847
O          3.47588        29.49467         2.00923
H          4.25338        29.04318         2.42393
O          3.68378        24.57434        -0.83622
H          3.10272        23.79585        -1.01009
O          3.50446        23.92618         2.78107
H          3.66862        23.12997         3.32762
O          7.23312        21.26872         3.07105
H          7.98341        21.76309         3.46676
O          5.56329        13.16995        -2.30964
H          4.77540        13.58649        -2.74364
O          2.54855        21.63181        -1.05007
H          2.40399        20.76342        -1.48846
O         10.61098         5.98528         1.89547
H         11.28938         6.36682         2.49099
O         18.13882         7.70418        -1.49762
H         18.89380         7.24475        -1.92455
H          1.36854         2.50639        -1.82525
H         -0.70951         3.77553        -2.25128
H         -0.75963         6.21795        -2.24350
H         -0.67920         8.15078        -2.09394
H         -0.69107        10.59233        -2.01770
H         -0.74535        12.46386        -1.58285
H         -0.80329        14.81854        -1.05337
H         -0.86575        16.50950        -0.05335
H         -0.97579        18.88942         0.41317
H         -1.00708        20.82220         0.64020
H         -1.01384        23.25223         0.79603
H         -1.00008        25.15642         1.40933
H         -1.03665        27.58635         0.98553
H          0.14329        29.58391        -0.07393
H          3.75998         2.48600        -1.11212
H          2.23910        30.86825        -0.32160
H          6.13445         2.47696        -0.53044
H          4.80572        30.89535        -0.34685
H          8.54490         2.41587        -0.09061
H          7.24861        30.76995        -0.75776
H         11.01935         2.37166         0.21635
H          9.60279        30.59580        -1.27226
H         13.48630         2.35325        -0.01386
H         11.70684        30.09097        -2.34780
H         16.04067         2.34248        -0.16143
H         14.40910        30.41935        -2.79255
H         18.50191         2.25518         0.36824
H         16.51270        30.13430        -3.44223
H         20.61568         3.54141         0.29315
H         21.80144         5.67869        -0.16704
H         21.86161         8.12003        -0.07376
H         21.86670        10.01069         0.05126
H         21.90064        12.41942         0.35425
H         21.84688        14.32780         0.06483
H         21.82839        16.71250        -0.08046
H         21.90970        18.68505         0.21227
H         21.85201        21.07278        -0.31810
H         21.68111        22.77110        -1.23655
H         21.46517        25.01913        -2.16564
H         21.01368        26.31778        -3.60426
H         20.78030        28.51989        -4.70898
H         18.80713        29.96524        -4.26752
