         256
 CSIRO Nanostructure Databank - Neutral Graphene Oxide Data Set
C        -10.94732         0.60889         0.72628
C         -9.81077         1.49380         1.08711
C         -8.45694         0.75041         1.35506
C         -7.21532         1.49903         0.95590
C         -6.15677         0.77397         0.17971
C         -5.18525         1.55461        -0.68560
C         -3.95239         0.81835        -1.18667
C         -2.62121         1.53618        -1.27320
C         -1.39095         0.72093        -0.94345
C         -0.10580         1.39128        -0.60523
C          1.17285         0.58512        -0.67652
C          2.45971         1.30553        -0.43254
C          3.75616         0.72750        -0.95734
C          5.02947         1.46399        -0.64193
C          6.42053         0.80408        -0.57688
C          7.36375         1.34438         0.51137
C          8.62781         0.58290         0.75362
C          9.93173         1.34717         1.03205
C         11.14650         0.65834         0.43147
C         -9.69282         2.83770         0.59959
C         -8.60915         3.76575         1.10798
C         -7.24088         3.02800         0.97770
C         -6.07261         3.76242         0.39994
C         -5.09985         3.03435        -0.50044
C         -3.83312         3.73781        -0.93792
C         -2.53526         2.98714        -0.96067
C         -1.35621         3.61567        -0.68420
C         -0.05225         2.89466        -0.68509
C          1.19533         3.57383        -0.21031
C          2.41744         2.73944         0.08050
C          3.69004         3.48752         0.31262
C          4.97502         2.89923        -0.17312
C          6.23690         3.60817         0.13246
C          7.41042         2.85769         0.70225
C          8.73584         3.51775         0.41208
C          9.88560         2.78810         0.52562
C         -8.66648         5.10748         0.31937
C         -7.42170         5.98128         0.32077
C         -6.12076         5.26536         0.27495
C         -4.92970         5.97459        -0.26480
C         -3.78763         5.22009        -0.86124
C         -2.44110         5.90053        -0.82519
C         -1.41857         5.02372        -0.09841
C         -0.09756         5.75779         0.23162
C          1.20001         5.01834         0.17873
C          2.38242         5.68500         0.32485
C          3.66373         4.97199         0.58082
C          4.97640         5.71105         0.81105
C          6.28811         4.92707         0.85929
C          7.51600         5.67976         0.36243
C          8.69077         4.94215         0.19120
C         -7.45700         7.33018         0.16711
C         -6.25270         8.14960        -0.18862
C         -4.99716         7.44243        -0.56337
C         -3.66286         8.10477        -0.32012
C         -2.39780         7.39283        -0.75216
C         -1.10794         8.09645        -0.39114
C         -0.06461         7.26799         0.34901
C          1.25710         8.06265         0.60928
C          2.46870         7.16852         0.24181
C          3.77552         7.88207         0.26551
C          5.03038         7.14328         0.46367
C          6.24112         7.80247         0.22037
C          7.45671         7.07632         0.16242
C         -6.13025         9.58763         0.17831
C         -4.94395        10.22353         0.27583
C         -3.62917         9.52407         0.18036
C         -2.34390        10.26425         0.00908
C         -1.18817         9.56541        -0.05782
C          0.07999         9.77700        -0.86301
C          1.35609         9.36787        -0.18150
C          2.54737         9.99462        -0.24159
C          3.75780         9.40297         0.48324
C          5.08176         9.98038         0.03292
C          6.20494         9.24006        -0.06511
C        -10.95319        -0.72071         0.92861
C         -9.80811        -1.44960         1.60546
C         -8.49425        -0.75183         1.25939
C         -7.46168        -1.45871         0.45153
C         -6.38265        -0.66164        -0.21567
C         -5.17776        -1.40589        -0.68187
C         -3.89858        -0.61209        -0.68880
C         -2.60180        -1.32115        -0.51102
C         -1.44615        -0.75699        -1.32052
C         -0.12944        -1.53108        -1.15367
C          1.12741        -0.71201        -1.50134
C          2.45860        -1.51382        -1.38833
C          3.76292        -0.76670        -1.22694
C          5.08112        -1.48976        -1.03475
C          6.33177        -0.74027        -0.64820
C          7.43441        -1.56089        -0.02742
C          8.71706        -0.87474         0.37728
C         10.03466        -1.52837         0.10690
C         11.20168        -0.61380         0.00837
C         -9.75397        -2.93754         1.28896
C         -8.79822        -3.58958         0.59806
C         -7.71722        -2.84332        -0.18133
C         -6.40473        -3.62801        -0.23668
C         -5.13252        -2.94049        -0.73034
C         -3.91629        -3.49289         0.01067
C         -2.62311        -2.74216        -0.00761
C         -1.30226        -3.44177         0.22909
C         -0.08839        -2.87223        -0.47701
C          1.24765        -3.49870        -0.17688
C          2.42898        -2.98378        -0.98026
C          3.72892        -3.72057        -0.82067
C          5.04633        -3.02156        -1.05987
C          6.33577        -3.77953        -0.92000
C          7.49290        -3.02895        -0.30122
C          8.81524        -3.71355        -0.24650
C         10.05222        -2.89069        -0.57472
C         -8.89813        -5.09138         0.35823
C         -7.56542        -5.80108         0.13624
C         -6.38285        -4.98665        -0.12913
C         -5.07999        -5.69945        -0.29736
C         -3.88995        -4.97371         0.25132
C         -2.60815        -5.67079         0.60502
C         -1.29938        -4.89225         0.65925
C         -0.00137        -5.67213         0.65268
C          1.26686        -4.92183         0.30687
C          2.50839        -5.73138         0.19113
C          3.77963        -4.95568         0.05014
C          5.07772        -5.67734         0.16575
C          6.34395        -5.29762        -0.61550
C          7.60096        -5.82377         0.08336
C          8.83376        -5.04748         0.00376
C         -7.50460        -7.16007         0.08499
C         -6.34078        -7.95663        -0.50407
C         -5.02583        -7.17372        -0.43928
C         -3.71930        -7.89408        -0.19425
C         -2.56565        -7.18004         0.46516
C         -1.29087        -7.95000         0.66094
C          0.00214        -7.17085         0.72452
C          1.23167        -7.90818         0.14001
C          2.49329        -7.08016         0.37012
C          3.74691        -7.79167         0.71098
C          5.03602        -7.17321         0.26348
C          6.32456        -7.91425         0.39813
C          7.56976        -7.12310         0.49906
C         -6.19456        -9.35962         0.05017
C         -5.02965       -10.03006         0.10980
C         -3.70762        -9.38961        -0.11033
C         -2.43508       -10.08348         0.24001
C         -1.26163        -9.41749         0.37376
C          0.04796       -10.19046         0.43761
C          1.29913        -9.34983         0.63576
C          2.45404        -9.96013         0.98232
C          3.75021        -9.24071         1.06899
C          5.04932        -9.96331         0.99309
C          6.23082        -9.34566         0.77825
O         -5.84825         7.90983        -1.62643
O          1.87047         0.41582         0.58169
O         -0.36762         6.48179         1.50174
O          4.63626        -4.85959         1.25243
O         -7.34922        -1.41209         1.89915
O          3.26340        -1.18762        -2.54472
O          3.11599         7.50837        -1.01608
O          6.05996        -1.06699        -2.03788
O          2.89392        -3.90334        -2.00300
O         -3.58241        -5.31177         1.63280
O         -2.20484        -7.72581         1.78223
O          5.72858         3.68273        -1.20061
O          1.00735        -7.95628        -1.23704
O          4.11558         5.34978         1.92709
O         -3.14551        -0.49908         0.56633
O          9.43667        -1.59877         1.42992
O          5.60351        -7.72032        -0.95317
O         -3.39381         1.17297        -2.46086
O          6.25099        -6.03699        -1.80603
O         -6.15572         3.46361         1.82973
O         -6.01320         0.96954         1.60524
O         -0.33506         8.54546        -1.61284
O         -8.18733        -2.66625        -1.48116
O         -0.99178         0.92483         0.44749
O         -0.23737        -2.77188        -1.92420
O         -9.20361         1.30591         2.43433
O         -4.06682         4.56940        -2.13004
O          1.51817        -3.76390         1.21062
O          5.82650        -3.47900        -2.21795
O          1.31276         8.37251         1.95740
O          0.90323         3.41308        -1.66332
O         -1.17791        -3.80593         1.62207
O         -5.08570         5.80918         1.17587
O          7.00859        -2.50570         0.99837
O          3.02094         2.78026         1.40111
O          7.55817         0.67547         1.77396
O         -5.82193         2.43614        -1.64000
O          4.44348         1.45403        -1.99928
O         -3.44856        -8.68439        -1.39233
O          6.57911         4.50005         2.23579
O         -3.52877         8.39509         1.11567
O         -2.24225         6.69837        -2.02335
O          0.20495        -6.41993         1.92050
O         -3.49250        -2.77718         1.17431
O         -4.87250        -6.29060        -1.61814
O          3.78700        -8.18996         2.11971
O         -6.16650        -0.88475        -1.62641
O          7.13814         3.11866         2.14218
O         -2.08767         4.75682         1.16540
H         -1.82855         5.45877         1.81151
O         -6.69478        -8.13292        -1.89899
H         -6.24113        -7.41249        -2.39714
O         -8.89353         4.74527        -1.05279
H         -8.81225         5.54437        -1.61413
O         -4.95131        -3.29733        -2.11311
H         -5.74006        -2.97236        -2.60258
O         -9.63708        -5.72079         1.40338
H         -9.10267        -5.69652         2.22320
O         10.12191         1.43624         2.45945
H          9.23171         1.39672         2.87717
O          3.62665         9.66281         1.89024
H          2.74357         9.27353         2.17590
O         -0.03411       -11.20825         1.44179
H         -0.21061       -10.77766         2.30366
O        -10.01024        -1.31983         3.02921
H         -9.15878        -1.53380         3.46745
O         -8.84923         4.06893         2.48769
H         -8.79394         3.23124         3.00248
O          7.12195         1.21668        -1.76730
H          6.54592         0.99209        -2.53485
O         10.08234        -2.66128        -1.98784
H         10.02844        -3.51996        -2.45542
O          0.93649        -0.31109        -2.87123
H          1.78259        -0.48128        -3.35534
O         -1.81834        -0.88351        -2.69873
H         -1.00596        -0.79398        -3.24755
H         12.13490        -1.01282        -0.41665
H         12.05428         1.27813         0.36636
H         10.85455         3.30022         0.41176
H          9.61896         5.46242        -0.09084
H          8.37945         7.60989        -0.11273
H          7.15433         9.71576        -0.35392
H          5.12756        11.06256        -0.16295
H          2.65765        10.95659        -0.76781
H          0.16058        10.67974        -1.51053
H         -2.36186        11.36057        -0.08137
H         -4.92615        11.30192         0.49646
H         -7.06198        10.15568         0.32625
H         -8.42496         7.85637         0.21825
H         -9.54372         5.69803         0.70454
H        -10.36942         3.17498        -0.20027
H        -11.80430         1.09361         0.23442
H        -11.83647        -1.30421         0.63027
H        -10.54245        -3.54051         1.77064
H         -9.49831        -5.22331        -0.58365
H         -8.43582        -7.72386         0.25799
H         -7.12993        -9.89533         0.27498
H         -5.02519       -11.07914         0.44493
H         -2.42658       -11.18261         0.17075
H          0.16778       -10.72585        -0.54310
H          2.44271       -11.03582         1.22136
H          5.03734       -11.04579         1.19223
H          7.16630        -9.92423         0.80348
H          8.46170        -7.60666         0.92333
H          9.79144        -5.58259         0.10782
H         10.97373        -3.45952        -0.26075
