         576
 CSIRO Nanostructure Databank - Neutral Graphene Oxide Data Set
C          6.54724        19.24203        -1.85576
C          6.73099        20.61413        -2.06297
C          5.68594        21.39971        -2.66125
C          6.97530        23.44738        -2.32011
C          5.80180        22.75456        -2.78474
C          7.03188        24.83749        -2.35430
C          8.34567        14.91175        -0.37675
C          8.36111        16.29327        -0.28952
C          7.36468        17.08125        -0.95065
C          8.64444        19.17180        -0.54961
C          7.47961        18.45433        -1.12853
C          9.13395        20.41524        -1.28195
C          7.96672        21.28514        -1.70756
C          9.39149        23.39479        -1.59536
C          8.08892        22.65042        -1.83836
C          9.05686        24.74400        -0.90848
C          8.12042        25.57769        -1.77152
C          9.42419        27.74426        -1.45709
C          8.24908        26.92812        -1.95060
C          8.95033        28.97824        -0.62322
C         10.68576        10.60468        -0.19744
C         10.72810        11.97809        -0.00859
C          9.50143        12.74985        -0.04422
C         10.80027        14.89723         0.01923
C          9.50233        14.12217        -0.04818
C         10.65308        16.17168         0.83262
C          9.34579        16.96483         0.66578
C         11.02217        18.97448         0.35386
C          9.59911        18.43457         0.31839
C         11.00352        20.48453         0.37115
C         10.15326        21.16081        -0.43894
C         11.47532        23.32209         0.04551
C         10.41440        22.58663        -0.77259
C         11.55496        24.83555        -0.01451
C         10.27759        25.51736        -0.50153
C         11.48274        27.57509        -0.01135
C         10.34244        26.85456        -0.64268
C         10.90002        28.63336         0.95362
C          9.53896        29.23793         0.72988
C         10.85127        31.14109        -0.44272
C          9.56269        30.38180        -0.24537
C         10.90625        32.32687        -1.14247
C         13.19861         6.24816        -1.08116
C         13.08551         7.62325        -0.59226
C         11.93443         8.35882        -0.62741
C         13.21214        10.57744        -0.29301
C         11.90518         9.84176        -0.49966
C         13.20958        11.95226         0.26325
C         11.97948        12.67982         0.23808
C         13.16392        14.75215         0.86519
C         11.99571        14.08620         0.45784
C         13.21990        16.16023         1.08945
C         11.91842        16.85145         1.26604
C         13.23845        19.02517         1.47718
C         11.87213        18.35718         1.49741
C         13.25654        20.42783         1.46566
C         11.93076        21.16540         1.35269
C         13.15221        23.28231         2.01441
C         12.14372        22.62233         1.12150
C         13.18598        24.78066         1.88318
C         12.15255        25.43485         1.26400
C         13.26842        27.64510         1.71777
C         12.04612        26.91670         1.27758
C         13.25603        29.00603         1.55871
C         12.02201        29.60519         1.08587
C         13.21479        31.66221         0.48487
C         12.01331        30.75473         0.34577
C         13.29859        32.69910        -0.59827
C         12.11782        33.13738        -1.22250
C         13.30031        35.17433        -1.95066
C         12.14203        34.38695        -1.90696
C         13.31070        36.53529        -2.45097
C         15.51212         5.89308        -0.15819
C         14.34767         5.53273        -1.05545
C         15.55658         7.40055         0.13708
C         14.38852         8.26185        -0.27218
C         15.62536        10.41473         0.50155
C         14.45502         9.75038        -0.14122
C         15.65511        11.88024         0.56669
C         14.40909        12.58230         0.61085
C         15.66390        14.72366         1.13655
C         14.37280        13.95082         1.24663
C         15.69283        16.10602         1.28810
C         14.43190        16.84201         1.31354
C         15.68377        18.99516         1.61318
C         14.44950        18.28456         1.47617
C         15.67383        20.40940         1.69799
C         14.47435        21.14879         1.56177
C         15.65666        23.31715         1.92583
C         14.50180        22.60741         1.75480
C         15.68845        24.67849         2.60440
C         14.38350        25.47623         2.43644
C         15.74681        27.64945         2.08625
C         14.45580        26.94978         2.21902
C         15.73838        28.96485         1.66076
C         14.51398        29.70483         1.38693
C         15.77881        31.38334         0.09093
C         14.50522        30.90866         0.72543
C         15.76213        32.81139        -0.37129
C         14.53118        33.37797        -0.80929
C         15.75445        35.37830        -1.56407
C         14.53447        34.64353        -1.46230
C         15.73455        36.75917        -2.05694
C         14.44125        37.29581        -2.44756
C         18.07902         5.97237        -0.39431
C         16.87840         5.30373        -0.48857
C         18.04052         7.46625        -0.39145
C         16.85907         8.13881         0.20659
C         18.13633        10.42530         0.20773
C         16.92609         9.63555         0.46929
C         18.10851        11.78719         0.46800
C         16.88685        12.49543         0.78353
C         18.19795        14.67283         1.23477
C         16.89951        13.92408         1.19723
C         18.16820        16.15040         1.21713
C         16.95695        16.83228         1.37836
C         18.15333        18.94887         1.82353
C         16.95474        18.27839         1.60667
C         18.20146        20.39411         2.14466
C         16.90566        21.15714         2.04119
C         18.21104        23.34596         2.14718
C         16.97231        22.62586         1.64133
C         18.22430        24.74799         2.30801
C         16.97248        25.49718         2.34036
C         18.22808        27.67623         2.48963
C         16.96754        26.89206         2.30472
C         18.22000        29.16650         2.22747
C         16.97547        29.76941         1.67320
C         18.20023        31.62905         0.59211
C         17.01490        31.01323         0.87219
C         18.23064        32.91135        -0.09708
C         16.96826        33.49720        -0.55498
C         18.19204        35.65507        -1.04723
C         16.95174        34.79880        -1.13084
C         18.22723        36.77679        -2.09206
C         16.89322        37.49527        -2.14575
C         20.55814         6.08519        -0.73532
C         19.36554         5.36018        -0.62133
C         20.54169         7.56858        -0.56173
C         19.24037         8.28914        -0.71963
C         20.54783        10.51180        -0.61874
C         19.19086         9.83796        -0.72788
C         20.48244        12.00192        -0.56399
C         19.28615        12.62877         0.09165
C         20.64575        14.76807         0.50454
C         19.43322        13.95694         0.77290
C         20.61317        16.23271         0.76268
C         19.42530        16.85239         1.14191
C         20.71805        19.00805         1.65822
C         19.43329        18.23454         1.67488
C         20.69992        20.49147         1.82243
C         19.46088        21.18328         2.03750
C         20.69896        23.32571         2.30503
C         19.42747        22.58501         2.17507
C         20.70158        24.79141         2.15447
C         19.49892        25.45993         2.28583
C         20.79888        27.65913         2.16051
C         19.53541        26.93357         2.45740
C         20.78389        29.09098         1.98349
C         19.52986        29.95055         2.02596
C         20.74740        31.64996         0.59240
C         19.47188        30.81033         0.72972
C         20.64649        33.11129         0.35198
C         19.41070        33.62443        -0.18414
C         20.57120        35.84594        -0.52914
C         19.51601        34.87486        -1.02333
C         20.63335        37.09870        -1.29303
C         19.48695        37.59657        -1.92186
C         23.05566         6.17183        -0.86728
C         21.83074         5.46126        -0.81146
C         23.04150         7.66172        -1.15117
C         21.80180         8.35661        -0.60701
C         23.06037        10.57000        -0.87265
C         21.72638         9.84548        -0.71302
C         22.97926        11.97314        -0.21368
C         21.79144        12.75449        -0.80448
C         23.05241        14.93099        -0.16892
C         21.75217        14.22832        -0.35058
C         23.06468        16.28646         0.44879
C         21.87150        16.93547         0.72255
C         23.17133        19.07431         1.01701
C         21.82559        18.44278         0.77876
C         23.18548        20.43792         1.58132
C         21.90795        21.15665         1.76454
C         23.14935        23.33319         1.42980
C         21.99856        22.58537         2.07586
C         23.14478        24.81211         1.67714
C         21.97583        25.48728         1.95536
C         23.25062        27.63557         1.82124
C         21.98292        26.94773         1.96711
C         23.24870        29.09645         1.97625
C         21.96172        29.77465         1.80140
C         23.20048        31.97764         1.27069
C         21.98857        31.12670         1.21144
C         23.05481        33.43528         0.98407
C         21.69667        33.96646         0.62362
C         23.40594        35.78130        -1.16022
C         21.47783        35.41490         0.43160
C         23.19566        37.22479        -1.41041
C         21.88573        37.76287        -1.56438
C         25.54714         6.22572        -0.81962
C         24.28900         5.52831        -0.74734
C         25.51626         7.69144        -0.76314
C         24.30916         8.34907        -0.71600
C         25.54072        10.51362        -0.12233
C         24.23822         9.76735        -0.34320
C         25.54881        12.00852        -0.10658
C         24.29614        12.74484        -0.22108
C         25.48525        14.84066         0.31030
C         24.29041        14.12094        -0.15757
C         25.52138        16.31805         0.26879
C         24.33413        16.99799         0.42391
C         25.61355        19.16036         0.57763
C         24.32820        18.42814         0.68844
C         25.67597        20.60286         0.97901
C         24.47593        21.20401         1.63071
C         25.70292        23.36646         1.56094
C         24.48159        22.67127         1.68366
C         25.68256        24.76698         1.43223
C         24.38675        25.51379         1.17209
C         25.65844        27.71601         1.29802
C         24.44231        26.97768         1.54417
C         25.67197        29.10271         1.25518
C         24.51333        29.89561         1.66069
C         25.63680        32.01246         0.85339
C         24.41891        31.33538         1.26525
C         25.60937        33.38650         0.54133
C         24.33525        34.13440         0.54516
C         25.50596        36.29424         0.03849
C         24.35994        35.39489        -0.25068
C         25.54973        37.63611        -0.64932
C         24.31031        38.07118        -1.32007
C         28.00332         6.25995        -1.20407
C         26.76230         5.56018        -0.81002
C         27.95478         7.77190        -1.30041
C         26.75356         8.45755        -0.76557
C         27.98563        10.67100        -0.78462
C         26.78209         9.79699        -0.46439
C         28.03256        11.84948         0.20279
C         26.74679        12.64851         0.10891
C         28.04309        14.82618         0.64622
C         26.75834        14.07139         0.48656
C         28.08313        16.26755         0.40966
C         26.83807        17.00906        -0.01320
C         28.09533        19.10819         0.55259
C         26.87512        18.43560         0.45383
C         28.13951        20.49919         0.99928
C         26.98465        21.23395         1.25100
C         28.20411        23.36343         1.49104
C         26.99215        22.65013         1.51714
C         28.22818        24.78618         1.32747
C         26.93295        25.46303         1.12484
C         28.21520        27.65358         1.13289
C         26.91523        26.97122         0.98447
C         28.17832        29.10522         0.86186
C         26.86371        29.82575         0.77484
C         28.01703        31.97871         0.27753
C         26.85735        31.31064         0.70513
C         28.00722        33.37624         0.03321
C         26.79601        34.08076         0.22153
C         28.09329        36.27270        -0.00603
C         26.80053        35.56453         0.27161
C         28.05623        37.65203        -0.57298
C         26.87068        38.24975        -0.91426
C         30.52200         6.33352        -1.10746
C         29.32847         5.63257        -1.04607
C         30.50626         7.76978        -1.32322
C         29.23411         8.56868        -1.51925
C         30.49864        10.56293        -0.71540
C         29.29449         9.91698        -0.84012
C         30.54559        12.01108        -0.40417
C         29.27334        12.70414        -0.02970
C         30.59014        14.82294         0.35136
C         29.34198        14.06707         0.58554
C         30.57043        16.18738         0.28121
C         29.30957        16.94464         0.31989
C         30.55585        19.13252         0.13267
C         29.30923        18.37714         0.30272
C         30.65365        20.52848         0.66808
C         29.43434        21.12665         1.28107
C         30.73648        23.34674         1.15054
C         29.48602        22.64147         1.51276
C         30.69614        24.77930         1.05362
C         29.43333        25.50111         1.22643
C         30.70371        27.69605         1.17876
C         29.40798        26.95250         1.15978
C         30.72411        29.18673         0.94857
C         29.41488        29.92537         0.93975
C         30.37626        31.76836        -0.60064
C         29.34908        31.31968         0.42665
C         30.44944        33.29443        -0.73505
C         29.23853        34.08414        -0.33097
C         30.62017        36.18312        -0.22574
C         29.29614        35.45294        -0.29838
C         30.53660        37.65494        -0.58497
C         29.34155        38.29898        -0.77238
C         32.95841         6.10885        -0.29229
C         31.72092         5.63109        -0.61803
C         33.42715         7.43765        -0.65505
C         31.66589         8.51729        -1.40025
C         33.00061        10.49012        -0.66050
C         31.76877         9.88221        -0.95305
C         33.00402        11.90806        -0.29212
C         31.85247        12.63980        -0.12788
C         33.14761        14.78789         0.43030
C         31.84417        13.99857         0.57248
C         33.14387        16.22363         0.11304
C         31.83312        16.90149        -0.04617
C         33.10199        19.11733         0.00937
C         31.82507        18.39636        -0.12081
C         33.16254        20.43416         0.39846
C         31.99461        21.11028         1.10551
C         33.11670        23.29851         0.55578
C         31.94636        22.62746         0.93914
C         33.03397        24.72703         0.24756
C         31.84500        25.47182         0.64131
C         33.15378        27.66705         0.31623
C         31.95030        26.93211         0.80365
C         33.13436        29.04726         0.09377
C         31.90832        29.84282         0.32087
C         33.03787        31.90131        -0.50049
C         31.78807        31.03445        -0.64141
C         33.02492        33.28532        -0.70916
C         31.75180        34.01227        -0.97724
C         33.05751        36.20459        -0.69165
C         31.74764        35.54827        -1.06236
C         33.00269        37.65000        -0.63559
C         31.81554        38.32974        -0.66849
C         34.24220         8.33643        -0.03887
C         35.47371        10.42524        -0.38459
C         34.27246         9.75881        -0.45687
C         35.59082        11.87772        -0.59918
C         34.29663        12.63110        -0.38419
C         35.60371        14.78566        -0.35850
C         34.41033        14.03937         0.07526
C         35.56071        16.16550        -0.39992
C         34.31077        16.88127        -0.22831
C         35.58942        18.98919         0.04605
C         34.31454        18.38067        -0.54470
C         35.59235        20.49620        -0.05631
C         34.39201        21.17470         0.22148
C         35.57029        23.32238         0.17381
C         34.37239        22.62083         0.30543
C         35.60138        24.77760         0.36310
C         34.35344        25.51467         0.06431
C         35.60726        27.66931         0.00707
C         34.37377        26.96983         0.18468
C         35.56693        29.08664        -0.19621
C         34.32752        29.77197        -0.19323
C         35.51084        31.92668        -0.46547
C         34.27758        31.20345        -0.37388
C         35.46195        33.34968        -0.52702
C         34.24747        34.03202        -0.61307
C         34.21356        35.48534        -0.58139
C         36.84370        12.64321        -0.43080
C         38.07938        14.78728        -0.53297
C         36.84939        14.02761        -0.48791
C         38.08717        16.16712        -0.63586
C         36.78508        16.90010        -0.90656
C         38.01919        19.03593        -0.54065
C         36.83733        18.34388        -0.48450
C         38.02245        20.48888        -0.44476
C         36.80222        21.18408        -0.27139
C         38.09653        23.35804        -0.24218
C         36.76856        22.67536        -0.45979
C         38.23102        24.78480         0.28061
C         36.91188        25.55815         0.34607
C         38.05261        27.67730        -0.37426
C         36.84827        26.97491        -0.03191
C         38.00529        29.08629        -0.52373
C         36.79379        29.81183        -0.40505
C         36.74000        31.22303        -0.49841
C         39.29452        16.92904        -0.67026
C         40.48805        19.09876        -0.70607
C         39.28817        18.32888        -0.70353
C         40.47605        20.49477        -0.66201
C         39.23073        21.20573        -0.61388
C         40.49998        23.35607        -0.97236
C         39.23466        22.65375        -0.53306
C         40.48801        24.84642        -0.76963
C         39.34977        25.54280        -0.41332
C         39.26449        26.95508        -0.54742
C         41.71343        21.25643        -0.51594
C         41.73737        22.60569        -0.55450
O         28.72903        14.31209         1.87237
O         21.59445        22.92919         3.42065
O         36.20736        25.26044         1.61614
O         29.74344        12.79501        -1.39984
O         27.48098        29.27405        -0.44045
O         16.21699         9.89423         1.72336
O         29.61322        21.66678         2.62303
O         12.57731        25.23359        -0.91163
O         18.92013        27.34510         3.73764
O         11.75965        22.68979        -1.29548
O         17.42399        20.79570         3.34102
O         31.68490        29.94680         1.75636
O         30.46678        20.32843        -0.75559
O         31.95542        30.46666        -1.92100
O         20.36081        18.30146         2.85986
O         30.94682        33.52757        -2.10295
O         34.81925        12.43747        -1.73826
O         22.24353        15.06898        -1.42392
O         25.28121        37.47404         0.84202
O         20.52057        13.97894         1.75056
O         27.60064        36.11306         1.37258
O         29.51669        31.06939         1.86106
O         14.84125         9.11531        -1.40403
O         34.08687        14.34173         1.47675
O         24.09022        29.64431         3.04504
O         16.26186         7.53111         1.40458
O         21.70069        30.98263        -0.30430
O         10.91545        27.60455         2.03238
O         32.83062         7.89761        -1.84539
O         11.07976        16.08107         2.21061
O         24.72897        10.01179         1.01221
O         17.64195        14.10807         2.47078
O         14.19055        26.36558         3.58661
O         25.48479        20.27212        -0.43296
O         17.35642        29.93054         3.12623
O         31.61756        27.27644         2.22453
O         26.85616        26.13611        -0.22820
O         24.02111        20.49439         2.83097
O         12.64554        10.49144        -1.62811
O         25.89056        14.33746         1.65209
O         21.26451         7.91501         0.68392
O         27.72254         6.96222        -2.49871
O          8.60319        19.32722         0.90992
O         18.36589         7.82242        -1.79778
O         31.75314        17.59383        -1.35971
O         19.43693        12.65810        -1.37151
O         33.60639        25.04670        -1.08996
O         23.78506        34.31149         1.92243
O         12.44400        27.96059        -0.98448
H         12.78658        27.08020        -1.31115
O         11.20709        21.13721         2.61811
H         11.78088        21.55009         3.30878
O         31.02008        36.07589         1.16713
H         30.27060        36.37890         1.72367
O         17.12638        22.58697         0.18424
H         17.01895        23.49611        -0.16652
O         22.96251         7.81496        -2.60079
H         23.13967         8.76854        -2.80253
O          9.97668        23.65350        -2.88141
H         10.92089        23.89348        -2.73029
O         12.86872        23.01128         3.42502
H         13.62128        23.37687         3.94617
O         22.69840        34.82600        -1.80756
H         21.88032        35.15418        -2.24675
O         27.74005        11.21270        -2.10599
H         28.17267        10.60597        -2.75548
O         19.41152        29.88193        -0.38106
H         20.28687        29.93370        -0.83970
O         19.70734        30.85872         3.12714
H         18.85462        30.87963         3.62581
O         19.92141        34.39906        -2.34177
H         19.37160        34.85186        -3.02765
O         11.67981        18.55828        -0.86824
H         11.18835        18.95045        -1.63439
O         18.10979        36.29492         0.25472
H         17.26991        36.80025         0.28874
O          8.71751        29.28080         1.87913
H          9.11609        28.67629         2.54098
O         34.32004        18.56250        -1.97094
H         33.46085        18.21664        -2.30748
O         11.25600        18.59900         2.76335
H         10.76618        17.77649         3.01000
O         36.53981        22.87876        -1.92491
H         35.73444        22.37129        -2.16873
O         28.13023        11.30981         1.53844
H         28.08129        12.06036         2.17211
O         38.69766        24.62731         1.65148
H         37.89600        24.64328         2.22658
O          9.81588        19.94149        -2.48362
H         10.07922        20.72731        -3.01054
O         15.15976         5.24788         1.10637
H         15.68879         5.69924         1.80469
O         18.32989        36.17060        -3.43906
H         18.28903        36.89785        -4.09554
O         31.51923        35.92748        -2.43794
H         31.11075        35.14591        -2.88400
O         21.42028        18.86686        -0.56888
H         22.07927        18.52380        -1.20990
O         15.74912        24.33670         4.02099
H         15.53094        25.16410         4.51209
O         15.90123        30.56606        -1.13757
H         16.76108        30.78884        -1.55610
O         11.07722        15.34946        -1.34327
H         11.15030        14.55767        -1.91696
O          8.68627        16.94660         1.95081
H          8.16868        17.78336         2.01480
O         26.90023        17.05974        -1.49845
H         26.46678        17.89078        -1.79142
O         36.67012        16.92503        -2.37016
H         36.64725        15.99483        -2.68061
O         21.94091        12.78094        -2.24068
H         21.09282        13.11284        -2.61213
O         40.46449        23.22621        -2.44480
H         39.56912        23.49432        -2.74513
O         35.54189        18.65558         1.47081
H         36.28793        19.10778         1.91767
O         12.97803        32.44814         1.71594
H         12.80815        31.81063         2.44263
O         23.35241        10.62523        -2.29260
H         22.80024        11.35175        -2.68609
O          8.35801        24.37452         0.31182
H          8.09520        25.19498         0.77917
O         22.19081        36.29378         1.15550
H         22.85358        35.80752         1.71567
O         18.73817        10.24256        -2.04814
H         18.20522         9.49819        -2.41998
O         14.23278        13.68643         2.69551
H         15.09988        13.36443         3.02649
O         22.64604        11.76767         1.17193
H         23.37318        11.23864         1.58356
O         10.17124        28.17947        -2.61178
H         11.10216        28.33321        -2.31557
O         32.17334        20.80197         2.50889
H         31.40160        21.18590         2.99377
O         29.21516         8.94476        -2.94702
H         28.84629         8.16346        -3.42677
O         22.91261        23.14819        -0.00996
H         23.42905        23.85623        -0.47683
O         31.71347        13.61601         1.97724
H         32.62308        13.63298         2.36222
O         29.68346        31.34094        -1.79630
H         30.40641        30.97555        -2.38731
O         24.24688        25.49666        -0.30788
H         25.12310        25.80262        -0.66750
H          5.62567        18.76733        -2.22543
H          4.76926        20.88835        -2.98936
H          4.97878        23.34558        -3.21253
H          6.20594        25.39424        -2.82447
H          7.48384        14.40889        -0.84522
H          6.53731        16.55153        -1.44957
H          7.51471        27.44396        -2.59114
H          7.85232        29.09486        -0.65238
H          9.71136        10.09626        -0.25732
H          8.55262        12.20507        -0.16507
H          8.71587        31.08461        -0.14217
H         10.02495        32.67168        -1.70431
H         12.32613         5.84025        -1.61537
H         10.98744         7.85962        -0.88816
H         11.20779        34.77802        -2.33836
H         12.36268        36.96750        -2.80513
H         14.36823         4.53858        -1.52729
H         14.40367        38.33486        -2.80797
H         16.89864         4.20974        -0.61979
H         16.85727        38.52538        -2.53552
H         19.40611         4.26325        -0.70697
H         19.59423        38.48494        -2.56793
H         21.87134         4.36125        -0.76230
H         21.82614        38.81608        -1.88763
H         24.30940         4.43475        -0.61663
H         24.19309        39.13762        -1.57207
H         26.78891         4.46469        -0.70222
H         26.88841        39.24466        -1.38673
H         29.34719         4.57625        -0.73554
H         29.33958        39.36050        -1.06724
H         33.64018         5.44481         0.26211
H         31.52060         4.58573        -0.32765
H         33.95119        38.20837        -0.60909
H         31.81845        39.42980        -0.71445
H         34.85246         8.04592         0.82951
H         36.38111         9.87038        -0.10302
H         36.40360        33.91851        -0.51672
H         35.16530        36.00914        -0.39933
H         37.79771        12.09577        -0.39845
H         39.03280        14.23816        -0.48754
H         38.93993        29.63094        -0.72613
H         37.67651        31.78829        -0.62080
H         40.25739        16.39650        -0.62579
H         41.45390        18.57125        -0.73216
H         41.33158        25.40315        -1.21011
H         40.15812        27.50367        -0.88308
H         42.63514        20.69070        -0.30993
H         42.67707        23.15679        -0.40353
