         477
 CSIRO Nanostructure Databank - Neutral Graphene Oxide Data Set
C         37.81504        50.80771         2.22665
C         36.66292        51.42538         2.71564
C         38.01911        52.93844         4.02802
C         36.76227        52.48237         3.62472
C         40.24638        49.11078         2.21028
C         40.29675        50.51508         2.16438
C         39.09346        51.25053         2.61173
C         41.19724        53.36006         2.97240
C         39.16854        52.33061         3.51115
C         41.66677        54.66310         3.19055
C         42.57771        48.97735         1.53856
C         41.38362        48.35807         1.95885
C         42.58566        50.38006         1.28044
C         41.46203        51.16523         1.69605
C         42.27506        53.36987         0.84151
C         41.56974        52.63827         1.81148
C         42.81979        54.65089         1.04942
C         42.51672        55.28027         2.26789
C         45.07543        46.09100         1.48242
C         43.85967        46.82148         1.54533
C         45.05396        48.92380         1.25376
C         43.81579        48.20992         1.46018
C         45.05036        50.21707         0.77150
C         43.80147        50.94494         0.67290
C         44.99046        52.87908        -0.46037
C         43.78580        52.11638        -0.06114
C         44.94701        54.39212        -0.51575
C         43.80054        55.24643         0.09209
C         45.12034        57.25917        -0.43055
C         44.05929        56.69036         0.19365
C         47.63629        44.64438         1.70118
C         47.57976        46.02181         1.43981
C         46.30830        46.71740         1.43256
C         47.63013        48.91363         1.26265
C         46.32946        48.19159         1.45189
C         47.56531        50.40121         0.92495
C         46.32351        50.70300         0.06331
C         47.55142        52.97669        -0.28508
C         46.30226        52.17437        -0.35517
C         47.48674        54.38150        -0.63878
C         46.24015        55.07941        -0.73571
C         47.44433        57.14505        -1.34206
C         46.24945        56.48554        -0.90343
C         47.45433        58.57009        -1.60628
C         50.02592        44.55946         1.23729
C         48.83106        43.93056         1.60625
C         50.02421        45.97778         1.04107
C         48.80563        46.71777         1.14329
C         49.99105        48.75413         0.41497
C         48.83624        48.12542         0.91967
C         49.97671        50.18002         0.08033
C         48.80947        50.91955         0.24345
C         50.04250        53.01656        -0.22265
C         48.75829        52.31011        -0.10085
C         49.99591        54.45740        -0.64553
C         48.68746        55.08966        -0.90471
C         49.89157        57.05671        -1.90091
C         48.65403        56.41590        -1.39474
C         49.85754        58.57464        -2.16450
C         48.58138        59.25940        -1.90879
C         52.33092        41.63850         0.57917
C         51.19471        42.37876         0.86087
C         52.45711        44.44731         0.69190
C         51.23656        43.78816         0.95781
C         52.54252        45.95145         0.91092
C         51.22646        46.65579         0.68681
C         52.37604        48.57963        -0.38691
C         51.19628        47.99451         0.30416
C         52.32961        50.00574        -0.85280
C         51.16996        50.83318        -0.43298
C         52.50843        52.89517        -0.80605
C         51.26367        52.21853        -0.48788
C         52.52915        54.41866        -0.76535
C         51.21876        54.95286        -1.39288
C         52.39562        57.11025        -1.82842
C         51.21947        56.44703        -1.61531
C         52.36964        58.48421        -2.48332
C         51.14385        59.27676        -2.07224
C         52.38963        61.32844        -1.53762
C         51.21684        60.59030        -1.59577
C         54.82195        40.04731         0.38724
C         54.80910        41.49870         0.20746
C         53.57038        42.27004         0.33946
C         54.83583        44.39527        -0.03769
C         53.60143        43.69299         0.36802
C         55.02132        45.85418         0.34751
C         53.72557        46.61414         0.22625
C         54.90536        48.58715        -0.69524
C         53.68540        47.87951        -0.28366
C         54.88733        49.95392        -1.03739
C         53.59631        50.69439        -1.37534
C         54.90830        52.84569        -1.40684
C         53.65616        52.18535        -1.09499
C         54.93424        54.30069        -1.56064
C         53.72879        55.04694        -1.43642
C         54.90654        57.13848        -1.95151
C         53.68267        56.41582        -1.74034
C         54.93401        58.55717        -2.12222
C         53.66981        59.28064        -2.35022
C         54.95516        61.43618        -1.75332
C         53.65753        60.77052        -2.01062
C         54.98815        62.82186        -1.35488
C         57.24939        39.93236        -0.03702
C         55.94325        39.29944         0.26074
C         57.28819        41.40666         0.22230
C         56.01687        42.14351         0.03589
C         57.39636        44.28619        -0.20385
C         56.09233        43.58467        -0.21391
C         57.37067        45.70717        -0.45767
C         56.19343        46.47577        -0.36536
C         57.33369        48.53768        -1.13441
C         56.15143        47.87252        -0.70588
C         57.33156        49.92300        -1.41740
C         56.09888        50.64714        -1.32656
C         57.32759        52.73996        -1.94897
C         56.06801        52.07699        -1.56076
C         57.36287        54.24032        -2.10519
C         56.12494        54.99905        -1.83786
C         57.36463        57.16659        -1.95251
C         56.13895        56.42599        -1.90703
C         57.38189        58.55698        -1.95938
C         56.14611        59.28071        -2.05127
C         57.40037        61.49135        -2.10914
C         56.13657        60.73320        -1.97238
C         57.39215        62.98714        -1.83282
C         56.13715        63.54734        -1.31959
C         59.81703        37.13302         0.42063
C         58.63677        37.75539         0.20203
C         59.84608        39.97239         0.07643
C         58.57542        39.20258        -0.06651
C         59.85662        41.36461         0.00820
C         58.59778        42.13276         0.14988
C         59.85319        44.25291        -0.35153
C         58.59231        43.58279        -0.15939
C         59.81909        45.66733        -0.60007
C         58.61996        46.35104        -0.72332
C         59.87010        48.41599        -1.55848
C         58.57333        47.73216        -1.25959
C         59.85527        49.88554        -1.85193
C         58.58042        50.63252        -1.72186
C         59.85935        52.80817        -1.82970
C         58.60279        52.00280        -1.80225
C         59.76282        54.18536        -1.20119
C         58.67425        54.96458        -1.94497
C         59.75846        57.13684        -1.12620
C         58.65792        56.44426        -1.86701
C         59.87558        58.59346        -1.29304
C         58.69763        59.27266        -1.91380
C         59.87856        61.50314        -1.43677
C         58.71182        60.76759        -1.98604
C         59.87966        62.87876        -1.37200
C         58.68609        63.67162        -1.55311
C         59.95454        65.72723        -1.10471
C         58.75237        65.04624        -1.44033
C         62.40266        35.82154         1.03814
C         62.32655        37.12232         0.57212
C         61.08070        37.84907         0.39778
C         62.34857        40.01887         0.40473
C         61.07165        39.23504         0.21462
C         62.30414        41.42228        -0.13040
C         61.10097        42.10417        -0.15559
C         62.34253        44.24458        -0.52551
C         61.07326        43.54161        -0.36601
C         62.35202        45.65511        -0.61997
C         61.09167        46.44689        -0.44606
C         62.33514        48.45592        -1.14871
C         61.13267        47.76505        -1.16359
C         62.30074        49.93404        -1.16437
C         61.16331        50.62876        -1.82732
C         62.40628        52.84318        -1.34722
C         61.19207        52.12619        -1.80808
C         62.40592        54.35042        -1.49790
C         61.06597        54.93688        -1.12968
C         62.23796        57.09679        -0.49712
C         61.00705        56.33845        -0.76932
C         62.21327        58.53101        -0.45076
C         61.02662        59.25081        -0.93424
C         62.40728        61.36343        -1.14700
C         61.04733        60.75879        -0.81825
C         62.46805        62.86800        -1.28551
C         61.17598        63.61686        -1.29163
C         62.36397        65.68350        -0.45895
C         61.16058        65.06084        -0.96282
C         62.32799        67.04572        -0.04896
C         64.86156        35.74067         0.86479
C         63.63860        35.13200         1.13156
C         64.87856        37.13280         0.48451
C         63.58861        37.77958         0.16723
C         64.86322        40.00768         0.05050
C         63.58644        39.26910        -0.04222
C         64.84792        41.39347        -0.16145
C         63.57482        42.04534        -0.65539
C         64.81360        44.24483        -0.59955
C         63.57619        43.54610        -0.53617
C         64.79539        45.65580        -0.75164
C         63.57184        46.36252        -0.74789
C         64.79613        48.54972        -0.79145
C         63.56869        47.80145        -0.87081
C         64.79404        49.96765        -0.72681
C         63.52272        50.70345        -0.80067
C         64.78081        52.86367        -0.68219
C         63.54624        52.17097        -1.00360
C         64.72529        54.28827        -0.46399
C         63.52732        55.00115        -0.70745
C         64.52270        57.01353         0.41869
C         63.43332        56.36761        -0.33870
C         64.46708        58.52564         0.60102
C         63.37913        59.23452        -0.09915
C         64.75902        61.38220        -0.13357
C         63.57962        60.61376        -0.59483
C         64.86426        62.74963        -0.36855
C         63.79111        63.61146        -1.00964
C         64.63720        65.54803         0.42763
C         63.57699        64.94942        -0.26457
C         64.56615        66.90633         0.90437
C         63.39420        67.64914         0.57224
C         67.38052        32.94804         1.22829
C         66.17217        33.61105         1.10276
C         67.34891        35.72706         0.95263
C         66.12965        35.01803         0.97790
C         67.30753        37.20303         0.92111
C         66.05340        37.87822         0.51700
C         67.29493        40.05005         0.33505
C         66.07408        39.30458         0.29242
C         67.26847        41.45060         0.16768
C         66.05570        42.13126        -0.11263
C         67.30509        44.24708        -0.41975
C         66.07002        43.55026        -0.40357
C         67.34913        45.66357        -0.83056
C         66.03799        46.40509        -0.98362
C         67.25272        48.57800        -0.66401
C         66.04145        47.86760        -0.80836
C         67.21648        49.98784        -0.52073
C         65.99729        50.69167        -0.60064
C         67.19862        52.87122        -0.28808
C         65.96688        52.14964        -0.49391
C         67.14337        54.30133        -0.09992
C         65.90912        54.95813        -0.03673
C         67.08779        57.17023         0.43680
C         65.84851        56.29815         0.66174
C         67.07005        58.52593         0.74980
C         65.72546        59.25200         1.11613
C         66.73106        61.51117         1.25335
C         65.72229        60.71166         0.68438
C         67.14074        62.71988         0.72995
C         66.14002        63.50208        -0.07108
C         67.08984        65.57484         1.02522
C         65.81781        64.71455         0.86252
C         66.84551        66.71009         2.03136
C         65.61753        67.51169         1.65221
C         66.58523        69.50246         2.74242
C         65.51246        68.81504         2.23051
C         69.92174        31.55320         1.65117
C         69.87757        32.93242         1.34101
C         68.61214        33.64157         1.20876
C         69.85020        35.77653         0.88215
C         68.59757        35.05575         1.04982
C         69.86083        37.17833         0.63476
C         68.60990        37.95009         0.78678
C         69.76763        40.04798         0.16095
C         68.57653        39.37311         0.39773
C         69.79505        41.47730         0.11700
C         68.52742        42.22644         0.44847
C         69.76524        44.32978        -0.15777
C         68.52661        43.62783        -0.09191
C         69.77971        45.75953        -0.34812
C         68.56195        46.45301        -0.55635
C         69.74818        48.58223        -0.51416
C         68.52733        47.86303        -0.57984
C         69.72821        50.09162        -0.63752
C         68.45259        50.69762        -0.03401
C         69.65763        52.93103        -0.19283
C         68.42361        52.19859        -0.20664
C         69.60944        54.36832        -0.18016
C         68.36623        55.05733        -0.00749
C         69.55450        57.21135         0.06112
C         68.32773        56.47188         0.16445
C         69.57402        58.59214         0.39391
C         68.35870        59.22157         0.87041
C         69.80868        61.19042         1.74184
C         68.55178        60.39640         1.59263
C         69.62444        62.66377         1.36036
C         68.39410        63.37088         1.12523
C         69.48218        65.43776         1.95615
C         68.32804        64.75410         1.33735
C         69.37311        66.85658         2.45641
C         68.09408        67.57447         2.15297
C         69.14312        69.64128         3.28574
C         67.96442        69.00939         2.54903
C         69.12221        71.14771         3.20954
C         72.33628        31.57513         1.59402
C         71.13023        30.88284         1.77543
C         72.31817        32.92929         1.29083
C         71.09975        33.63340         1.15751
C         72.25390        35.74561         0.48483
C         71.07656        35.05748         0.84574
C         72.22938        37.09396         0.15746
C         71.04031        37.83783         0.25137
C         72.25924        40.07133         0.15303
C         71.02478        39.28445        -0.20810
C         72.24054        41.42157         0.18057
C         71.00371        42.18165         0.07464
C         72.20748        44.38176        -0.01091
C         71.00236        43.62995         0.00137
C         72.21558        45.75488        -0.16691
C         71.00764        46.48746        -0.33905
C         72.19309        48.70035        -0.71694
C         70.97889        47.91376        -0.49537
C         72.20445        50.04449        -0.61166
C         70.99280        50.74677        -0.03555
C         72.08705        53.02276        -0.32952
C         70.91625        52.25923        -0.23620
C         72.04451        54.41090        -0.40309
C         70.82071        55.10949        -0.31278
C         71.93827        57.33187        -0.49037
C         70.77386        56.54828        -0.27180
C         71.95260        58.67522        -0.20236
C         70.81476        59.31777         0.37586
C         72.16228        61.35417         0.95916
C         70.94407        60.60909         0.95590
C         72.15745        62.69939         1.20800
C         70.87735        63.41545         1.23168
C         71.99079        65.69681         2.06571
C         70.82895        64.92774         1.58599
C         71.86671        66.97895         2.50203
C         70.60081        67.67805         2.61182
C         71.64890        69.89137         2.93290
C         70.49018        69.03415         2.89155
C         71.54529        71.24553         3.06622
C         70.25449        71.88257         3.15540
O         63.47081        38.39231        -1.18577
O         51.97174        48.91253        -1.77631
O         57.26977        53.39492        -3.28799
O         67.50932        60.96377         2.29832
O         60.66466        50.10460        -3.07353
O         57.84324        39.54053        -1.31701
O         68.26044        68.62033         1.16158
O         49.76518        57.58888        -3.24867
O         57.95852        41.80925         1.47112
O         53.68672        60.27606        -3.41810
O         57.33676        62.46191        -3.20227
O         61.91973        63.31432        -2.56722
O         70.87094        64.49611         0.21315
O         59.91901        56.66378         0.24801
O         47.13567        48.67639         2.62661
O         67.95961        37.79032         2.11095
O         59.10180        55.75040        -3.08855
O         45.65005        52.32903        -1.67124
O         55.27359        44.04474        -1.37306
O         63.28003        60.67933        -2.06237
O         63.96490        57.61159         1.64513
O         43.80649        54.83613        -1.30499
O         59.04514        59.95617        -3.17073
O         50.19164        54.11803         0.76890
O         69.28542        65.74274         3.39336
O         62.50340        50.37325         0.23942
O         60.65216        52.73545        -3.04449
O         59.13704        47.70703        -2.63380
O         40.41327        52.79985         3.98228
O         42.55398        52.71151        -0.37193
O         68.45604        50.45370         1.41731
H         67.66807        50.90010         1.79440
O         60.92975        61.02054         0.63118
H         60.23493        60.43394         0.99859
O         65.44729        64.09227         2.11312
H         65.60433        64.74059         2.84309
O         62.53244        40.15924         1.86279
H         61.76931        40.66839         2.21119
O         51.08546        54.36820        -2.71580
H         51.61277        54.89603        -3.35269
O         66.75049        63.93794        -1.30726
H         66.02472        64.05845        -1.97280
O         66.78535        45.92758        -2.16356
O         67.35817        66.24872        -0.22169
H         67.40121        65.54895        -0.92373
O         64.30962        64.02285        -2.31197
H         63.53651        64.01529        -2.93297
O         63.56136        41.76209        -2.10489
H         62.76813        42.19416        -2.48755
O         69.71246        50.38176        -2.05542
H         69.76815        51.35416        -2.17220
O         65.90556        55.94672         2.08051
H         65.23176        56.49628         2.54329
O         52.78159        46.11647         2.35190
H         53.69352        45.77504         2.52778
O         52.66457        54.86561         0.60651
H         51.86108        54.55889         1.09809
O         46.44256        49.90692        -1.13471
H         45.98569        50.40285        -1.85441
O         71.08757        50.52361         1.39154
H         70.18830        50.64346         1.78171
O         53.53302        50.63655        -2.83035
H         53.08346        49.78860        -3.05790
O         55.39371        45.81314         1.77782
H         55.70502        46.70819         2.03179
O         62.65479        54.65299        -2.91417
H         61.95833        54.17381        -3.42680
O         68.55629        42.38358         1.92553
H         68.55099        41.48025         2.31040
O         59.25515        53.97668         0.15173
H         59.36826        54.83549         0.62908
O         61.06066        46.83891         0.99811
H         61.88570        47.34118         1.17853
O         47.42257        51.15935         2.14706
H         47.23966        50.50010         2.86181
O         68.92599        69.28746         4.69126
H         69.65347        69.68542         5.21452
O         70.17028        61.15102         3.17127
H         69.35256        61.35482         3.67573
O         65.66113        59.26003         2.55957
H         65.05451        58.53349         2.83151
O         71.01059        39.20549        -1.67869
H         71.03570        40.12416        -2.02139
O         66.59900        66.13823         3.34704
H         66.54848        66.86943         3.99844
O         52.25548        58.17797        -3.90411
H         52.49603        59.00291        -4.38499
H         37.72534        49.96847         1.52251
H         35.67504        51.06910         2.39401
H         38.11512        53.76182         4.74763
H         35.85384        52.95536         4.02201
H         39.32503        48.61334         2.54350
H         41.40448        55.17513         4.12484
H         41.35034        47.27262         2.12002
H         42.93480        56.26929         2.49995
H         45.01086        44.99399         1.48746
H         42.92768        46.24482         1.61749
H         45.20450        58.35372        -0.41117
H         43.31593        57.32720         0.69403
H         46.72072        44.10075         1.97025
H         46.51504        59.13082        -1.51334
H         48.80862        42.85110         1.80590
H         48.53224        60.35166        -2.02411
H         52.24614        40.54495         0.53447
H         50.24908        41.84345         1.01788
H         52.36310        62.33411        -1.09949
H         50.29096        61.07595        -1.25242
H         53.87409        39.53348         0.59745
H         54.05465        63.29424        -1.01955
H         55.88291        38.20422         0.33523
H         56.13385        64.56219        -0.89688
H         59.82706        36.04676         0.58507
H         57.70308        37.17658         0.17477
H         59.88769        66.80979        -0.93566
H         57.83911        65.64520        -1.56251
H         61.49432        35.28547         1.34641
H         61.42894        67.64551        -0.24125
H         63.61151        34.08805         1.47191
H         63.32203        68.71148         0.83922
H         67.36607        31.85459         1.32474
H         65.24204        33.02717         1.10182
H         66.42377        70.46811         3.24166
H         64.52456        69.29757         2.28311
H         68.99144        30.99240         1.81187
H         68.14612        71.64932         3.27984
H         73.29476        31.04814         1.69809
H         71.14165        29.81214         2.02174
H         73.27534        33.45340         1.16832
H         73.20856        35.20823         0.41364
H         73.15692        37.57719        -0.17798
H         73.21482        39.54294         0.28062
H         73.18041        41.96257         0.35935
H         73.17022        43.86779         0.11230
H         73.17623        46.28784        -0.15043
H         73.10202        48.17171        -1.04100
H         73.13041        50.60049        -0.81834
H         73.06577        52.52475        -0.34360
H         72.99074        54.96163        -0.48311
H         72.85423        56.86061        -0.87031
H         72.88011        59.24235        -0.35267
H         73.11576        60.85736         0.73097
H         73.08957        63.27860         1.17183
H         72.99084        65.24703         1.98810
H         72.78390        67.51241         2.79020
H         72.64477        69.44789         2.79413
H         72.44799        71.87141         3.05973
H         70.20662        72.98092         3.15714
