         314
 CSIRO Nanostructure Databank - Neutral Graphene Oxide Data Set
C         30.49787        57.20195         0.24134
C         30.50993        58.61093         0.41586
C         29.31073        59.37335         0.35274
C         30.56732        61.44427         0.53039
C         29.35594        60.76768         0.41044
C         32.73287        52.76162        -0.37138
C         32.47297        54.03307         0.17550
C         31.51613        55.02010        -0.10885
C         32.93703        57.10720         0.40479
C         31.66396        56.41357         0.24745
C         32.96110        58.52866         0.56178
C         31.75185        59.28547         0.58998
C         33.01069        61.39840         0.84454
C         31.79898        60.73034         0.64307
C         35.33502        48.56159        -0.57789
C         35.28873        49.98237        -0.45676
C         34.08248        50.71060        -0.48349
C         35.26935        52.84887        -0.23339
C         34.01740        52.11839        -0.29154
C         35.33478        54.28021        -0.17337
C         34.31999        55.05016         0.38485
C         35.36733        57.19986        -0.12169
C         34.19825        56.46152         0.22318
C         35.35584        58.60219         0.09181
C         34.20569        59.23248         0.56914
C         35.49194        61.41413         0.68295
C         34.27433        60.64069         1.11411
C         37.77750        44.28217        -0.68106
C         37.75062        45.69358        -0.57550
C         36.56459        46.42201        -0.63896
C         37.78878        48.56090        -0.32806
C         36.53958        47.84854        -0.53855
C         37.75684        49.98808        -0.22574
C         36.52808        50.69619        -0.31670
C         37.75045        52.81209        -0.32552
C         36.50969        52.12334        -0.32735
C         37.79894        54.23048        -0.71187
C         36.50806        55.02553        -0.66553
C         37.78702        57.18443        -0.62692
C         36.58619        56.50178        -0.48385
C         37.78788        58.66515        -0.66920
C         36.53060        59.40279        -0.29627
C         37.84431        61.51762        -0.04988
C         36.60807        60.82833         0.11622
C         40.41582        40.14059        -1.15450
C         40.26160        41.43765        -0.67678
C         39.06016        42.18354        -0.81686
C         40.06330        44.21488         0.27482
C         38.94921        43.52964        -0.44147
C         40.12784        45.70699         0.23353
C         39.08152        46.42269        -0.58690
C         40.23188        48.55987         0.07786
C         39.00919        47.87905        -0.20913
C         40.21897        49.99268         0.11042
C         38.98280        50.69024        -0.05084
C         40.16896        52.82674         0.16607
C         38.96044        52.11527        -0.08112
C         40.11897        54.30518         0.24320
C         39.08509        54.98066        -0.59617
C         40.30510        57.20356        -0.14440
C         39.09430        56.47900        -0.64622
C         40.37591        58.65191        -0.44654
C         39.09033        59.41655        -0.66038
C         40.28695        61.56918        -0.24415
C         39.08073        60.87391        -0.34329
C         43.07274        36.05676        -1.78408
C         43.02740        37.40599        -1.47321
C         41.77450        38.11108        -1.46207
C         42.86055        40.16295        -0.64489
C         41.66684        39.44026        -1.07748
C         42.74608        41.47187        -0.21651
C         41.41598        42.05554         0.02192
C         42.56726        44.24321         0.81049
C         41.32465        43.45116         0.55447
C         42.39727        45.65675         1.15245
C         41.39919        46.42329         0.54087
C         42.70380        48.58167         0.31610
C         41.46376        47.85160         0.31952
C         42.68494        50.01490         0.40750
C         41.42829        50.71963         0.31025
C         42.57966        52.94898         0.56781
C         41.36131        52.14394         0.37981
C         42.48269        54.30956         1.09117
C         41.28508        55.09391         0.74658
C         42.59448        57.26212         0.80363
C         41.38830        56.54769         0.38142
C         42.69108        58.76168         0.73319
C         41.63466        59.41555        -0.11583
C         42.82675        61.67663         0.21528
C         41.60976        60.92530        -0.20626
C         45.63752        33.25430        -1.79950
C         44.42539        33.88984        -1.93737
C         45.63412        36.10953        -1.53220
C         44.34088        35.34733        -1.95388
C         45.47044        37.44489        -0.94658
C         44.22816        38.11371        -1.03932
C         45.25695        40.07426         0.00477
C         44.13245        39.46128        -0.60069
C         45.22375        41.52962         0.25329
C         43.93049        42.29447         0.06334
C         45.10016        44.43249         0.61498
C         43.81260        43.69152         0.57573
C         45.25424        45.73675         0.21396
C         44.15093        46.56503        -0.38806
C         45.17372        48.63991         0.45678
C         44.00009        47.94552         0.18815
C         45.14991        50.05702         0.69542
C         43.90086        50.73008         0.58839
C         45.04982        52.92211         1.20625
C         43.88795        52.20818         0.60658
C         45.05385        54.43647         1.30822
C         43.68128        55.06303         1.44772
C         45.42696        57.57957         1.32762
C         43.53419        56.52294         1.46774
C         45.29925        58.92124         0.93119
C         43.97086        59.59711         0.94760
C         45.30559        61.79104         0.60945
C         43.98102        61.03669         0.52246
C         46.82909        33.94396        -1.45751
C         47.92649        35.98838        -0.59923
C         46.82596        35.31739        -1.18161
C         47.85445        37.33980        -0.19910
C         46.57801        38.04469        -0.29534
C         47.60330        39.96211         0.92258
C         46.45143        39.35313         0.21400
C         47.53683        41.40768         1.35495
C         46.26062        42.16723         1.11824
C         47.55077        44.31875         1.39169
C         46.25187        43.66931         1.18754
C         47.66737        45.74808         1.06889
C         46.54589        46.46071         0.38678
C         47.55874        48.65932         1.22520
C         46.54270        47.99197         0.28063
C         47.61347        50.13111         1.07921
C         46.37736        50.77856         0.87392
C         47.59186        53.00322         1.06891
C         46.35067        52.21352         1.19937
C         47.56239        54.36120         0.73699
C         46.21244        55.12053         0.54978
C         47.18710        57.31903        -0.18554
C         46.31344        56.66934         0.67784
C         47.49054        58.71451        -0.14781
C         46.40660        59.54139         0.29048
C         47.66183        61.49118        -0.35482
C         46.48239        60.95624         0.12396
C         48.99774        38.01842         0.27946
C         50.07340        40.06501         1.16321
C         48.94150        39.34672         0.76636
C         50.03528        41.46189         1.49569
C         48.79555        42.15564         1.48952
C         49.99522        44.26351         1.74399
C         48.75698        43.58023         1.55325
C         49.99854        45.71062         2.05421
C         48.75591        46.47617         1.78498
C         50.01427        48.69530         2.21139
C         48.72319        47.96548         1.85811
C         50.03347        50.16939         1.82634
C         48.79492        50.84194         1.33799
C         50.05919        52.94417         1.09862
C         48.81997        52.26778         1.17669
C         50.06455        54.31862         0.74566
C         48.83156        54.96840         0.43576
C         50.07615        57.01308        -0.26157
C         48.96757        56.17238        -0.29813
C         49.97791        58.40610        -0.91403
C         48.74289        59.25628        -0.53779
C         50.04790        61.31082        -0.96337
C         48.82368        60.68001        -0.63390
C         51.24257        42.18594         1.74343
C         52.36215        44.47598         2.26929
C         51.20845        43.57473         1.90445
C         52.44313        45.73259         1.42554
C         51.35401        46.34933         2.26630
C         52.60082        48.59672         1.83878
C         51.37634        47.88358         2.53757
C         52.56231        50.07388         1.49212
C         51.30747        50.86076         1.52351
C         52.50574        52.90340         0.74546
C         51.30136        52.20258         1.14465
C         52.52841        54.27409         0.52548
C         51.28993        55.02465         0.53117
C         52.55497        57.11696         0.08992
C         51.27383        56.38943         0.16652
C         52.51788        58.53343        -0.41268
C         51.25533        59.19305        -0.73313
C         52.52917        61.27738        -1.06577
C         51.28304        60.58925        -0.95893
C         53.58492        46.38451         1.07779
C         54.82731        48.45046         0.70106
C         53.68136        47.82474         1.14514
C         54.93849        49.88058         0.56579
C         53.65207        50.61612         0.61554
C         54.94937        52.74798         0.06895
C         53.66673        52.08943         0.34257
C         54.97046        54.14557        -0.13294
C         53.74995        54.93659         0.06845
C         54.87531        56.94754        -0.90130
C         53.77016        56.29693        -0.11427
C         54.98167        58.45423        -0.73044
C         53.78076        59.19044        -0.78230
C         55.02957        61.23514        -1.22736
C         53.77859        60.59693        -1.02290
C         56.09549        50.54348         0.22290
C         57.36541        52.64543        -0.20040
C         56.14462        51.97655         0.00146
C         57.41434        54.04992        -0.40706
C         56.18254        54.77350        -0.48167
C         57.49898        56.94049        -0.75810
C         56.19964        56.20301        -0.84397
C         57.44885        58.39672        -0.30098
C         56.20984        59.12476        -0.77894
C         57.50412        61.14725        -1.33944
C         56.24112        60.52657        -1.07280
C         58.65763        54.74720        -0.45148
C         59.95706        56.84143        -0.51077
C         58.74648        56.16101        -0.50801
C         60.03286        58.30776        -0.66811
C         58.76044        59.13012        -0.58053
C         59.93799        61.00884        -1.68484
C         58.72421        60.46256        -1.22726
C         61.16575        58.91451        -1.37243
C         61.11784        60.23030        -1.77069
O         41.14929        42.31909         1.46641
O         52.64597        58.17841         1.10311
O         39.90896        59.00102        -1.78882
O         56.96469        56.58052        -2.06955
O         44.57620        54.73252         2.63120
O         53.23214        51.09082        -0.69573
O         42.99856        59.38471         2.02085
O         44.96498        42.24966        -0.99775
O         45.23780        35.99827        -2.92313
O         36.88326        59.19299        -1.70455
O         47.89415        56.55536        -1.12599
O         47.33309        40.32349         2.32639
O         47.52543        48.31599         2.64161
O         40.09145        54.82139         1.62795
O         33.38742        54.42159         1.19739
O         59.65709        59.08028         0.57315
O         45.76229        42.81380         2.32380
O         39.58408        45.02198         1.41118
O         45.55097        52.37441         2.45679
O         44.49727        57.14950         2.26253
O         49.01988        45.95895         3.12592
O         43.48568        52.83527        -0.65314
O         37.05030        54.52661        -1.92549
O         39.46825        55.64929        -1.82321
O         42.08220        60.06705        -1.33920
O         49.84085        49.70555         3.23579
O         47.67148        45.94443        -0.42908
O         51.91137        45.41649         3.35241
O         53.13186        49.61400         2.75883
O         43.47255        46.16207        -1.31902
O         57.28438        58.31891         1.14200
H         58.16006        58.55463         1.53699
O         45.82058        54.86969        -0.82331
H         46.52222        55.23609        -1.41049
O         45.23697        63.02991        -0.08973
H         45.06584        62.84220        -1.03529
O         46.96588        48.33716        -1.06144
H         47.43126        47.55295        -1.43512
O         49.85338        58.16375        -2.35673
H         49.02630        57.64622        -2.48601
O         43.29686        46.22799         1.99003
H         43.85225        45.54105         2.41267
O         39.56092        46.37527        -1.96686
H         38.96550        46.92712        -2.51602
O         34.39572        60.47870         2.59001
H         33.55074        60.09976         2.91420
O         54.39930        56.81014        -2.28491
H         55.20206        56.82936        -2.85696
O         51.56653        47.98600         3.93499
H         51.38502        48.91570         4.19921
H         29.52880        56.70809         0.07182
H         28.34875        58.85580         0.22973
H         30.58341        62.54303         0.56388
H         28.42076        61.34160         0.34501
H         31.93147        52.23545        -0.91176
H         30.59860        54.73728        -0.64721
H         33.02431        62.49748         0.89182
H         34.39162        48.00967        -0.70782
H         33.13809        50.15841        -0.60390
H         35.53485        62.47436         0.97751
H         36.85952        43.75344        -0.98285
H         35.60649        45.88413        -0.71064
H         37.87479        62.58737         0.20993
H         39.55880        39.63117        -1.62081
H         38.20512        41.70464        -1.31841
H         40.24684        62.63603         0.02706
H         42.13393        35.50079        -1.92922
H         40.87326        37.57206        -1.79117
H         42.84909        62.76108         0.01973
H         45.67430        32.15679        -1.85684
H         43.49678        33.30487        -2.00857
H         45.49472        62.04128         1.69134
H         47.74374        33.36307        -1.27059
H         48.86627        35.43633        -0.44631
H         47.75251        62.58258        -0.46389
H         49.96799        37.49904         0.26040
H         51.05630        39.57169         1.11418
H         50.07054        62.40393        -1.08471
H         52.19355        41.63854         1.82021
H         53.31049        43.94983         2.51937
H         52.51963        62.36716        -1.21592
H         54.47626        45.81662         0.76948
H         55.65762        47.82855         0.33135
H         55.05996        62.30553        -1.47696
H         57.03787        49.97980         0.14835
H         58.30577        52.07498        -0.17757
H         57.50954        62.17888        -1.72281
H         59.58718        54.16718        -0.34943
H         60.89967        56.27567        -0.45865
H         59.94102        62.02953        -2.09341
H         62.05106        58.29831        -1.58493
H         62.00237        60.67865        -2.24581
