         334
 CSIRO Nanostructure Databank - Neutral Graphene Oxide Data Set
C         30.44424        57.13859         0.99074
C         30.40649        58.53466         0.89800
C         29.17157        59.20581         0.73694
C         30.28879        61.31191         0.31547
C         29.12201        60.57930         0.46459
C         32.96364        52.89809         0.99559
C         32.99178        54.33827         1.38596
C         31.70362        55.05519         1.12879
C         32.94901        57.19436         1.40077
C         31.66860        56.42627         1.13388
C         32.87320        58.65592         0.99520
C         31.65689        59.29287         0.85029
C         32.72417        61.44935         0.27139
C         31.57523        60.70913         0.49814
C         35.43231        48.58769         0.73362
C         35.47317        50.07232         0.95647
C         34.17241        50.78776         0.77321
C         35.40760        52.93170         0.57561
C         34.15649        52.18899         0.79149
C         35.39192        54.34707         0.49860
C         34.17764        55.09965         0.82836
C         35.46767        57.21586         0.78023
C         34.15502        56.46277         0.83943
C         35.36650        58.69890         0.47513
C         34.13584        59.41312         0.87912
C         35.22350        61.59860        -0.13819
C         34.05063        60.90446         0.53133
C         37.82060        44.34693         0.42962
C         37.76257        45.74620         0.19490
C         36.56975        46.45028         0.37170
C         37.66226        48.57343        -0.40949
C         36.50992        47.87824         0.27642
C         37.72498        50.05710        -0.13694
C         36.61788        50.77169         0.26114
C         37.74402        52.94374        -0.16427
C         36.59780        52.22847         0.25056
C         37.74413        54.35786        -0.20422
C         36.55181        55.04826         0.10638
C         37.74460        57.26145        -0.27793
C         36.42904        56.52621        -0.17702
C         37.71400        58.64521        -0.28293
C         36.48780        59.37101         0.02260
C         37.70927        61.51960        -0.05993
C         36.52335        60.83304        -0.04933
C         40.14912        40.13963         1.11674
C         40.21691        41.45747         0.61740
C         39.05634        42.24893         0.68586
C         40.26832        44.31434         0.05673
C         39.02455        43.63202         0.39706
C         40.22911        45.75841        -0.14602
C         39.00684        46.46089        -0.08607
C         40.19331        48.59836        -0.31738
C         38.99104        47.87152        -0.22449
C         40.17297        50.04555        -0.42969
C         38.97535        50.73096        -0.40240
C         40.20045        52.92973        -0.91952
C         38.92892        52.19359        -0.62494
C         40.21763        54.40528        -0.76372
C         38.96177        55.11019        -0.50278
C         40.19235        57.25112        -0.91524
C         38.94453        56.49861        -0.49824
C         40.18309        58.65986        -0.29867
C         38.93670        59.44006        -0.70302
C         40.19346        61.47912         0.00117
C         38.98684        60.85132        -0.16257
C         42.86765        36.00394         1.28643
C         42.77694        37.29022         0.85993
C         41.70287        38.11922         1.41184
C         42.77159        40.02631        -0.50784
C         41.11567        39.15264         0.73022
C         42.72768        41.45825        -0.32881
C         41.56396        42.16062         0.40105
C         42.68061        44.30528        -0.51019
C         41.44308        43.60703        -0.03656
C         42.69576        45.78112        -0.26216
C         41.45011        46.48627        -0.27282
C         42.69314        48.62237        -0.38243
C         41.44378        47.90657        -0.30090
C         42.72419        50.03833        -0.49864
C         41.46381        50.80907        -0.21309
C         42.68054        52.86857        -0.91080
C         41.48547        52.20686        -0.76833
C         42.66477        54.32452        -1.19671
C         41.41077        55.06108        -0.90838
C         42.70366        57.28126        -1.11895
C         41.49272        56.52060        -0.53909
C         42.69747        58.71032        -0.60634
C         41.48072        59.41156        -0.47589
C         42.69775        61.48178        -0.08279
C         41.47102        60.79954        -0.18580
C         45.24421        33.28888         1.90379
C         44.04003        33.81599         1.55888
C         45.21269        35.83841         0.58538
C         43.91522        35.06304         0.72820
C         45.17446        37.13824         0.13534
C         43.81233        37.75136        -0.20352
C         45.18422        39.91228        -0.66743
C         43.90410        39.25631        -0.40820
C         45.18885        41.44276        -0.67330
C         43.92688        42.14619        -0.38823
C         45.14361        44.26981        -0.09019
C         43.96870        43.59103        -0.21274
C         45.15693        45.75199         0.19697
C         43.89463        46.47359        -0.19658
C         45.16204        48.60538        -0.33621
C         43.91508        47.89825        -0.30475
C         45.17669        50.01153        -0.55517
C         43.94668        50.73008        -0.64553
C         45.16049        52.88682        -0.90948
C         43.95402        52.17961        -0.82386
C         45.21644        54.31447        -0.90770
C         43.98030        55.08000        -1.14486
C         45.16425        57.16262        -0.57225
C         43.98823        56.52637        -0.84975
C         45.18154        58.60535        -0.12291
C         43.90660        59.37516        -0.38024
C         45.19202        61.44456         0.00495
C         43.92183        60.77927        -0.14972
C         46.46465        33.94525         1.56384
C         47.68294        35.90251         0.73972
C         46.46651        35.19920         0.95055
C         47.68720        37.21888         0.27956
C         46.41956        37.88974        -0.01268
C         47.72119        39.95317        -0.75116
C         46.44467        39.21408        -0.39270
C         47.65614        41.43820        -0.41921
C         46.46686        42.10888        -0.34969
C         47.60350        44.28761        -0.60096
C         46.46298        43.55601         0.10886
C         47.64397        45.76542        -0.29685
C         46.42413        46.47473        -0.20522
C         47.66826        48.63628        -0.05967
C         46.39213        47.87738        -0.25802
C         47.63790        50.04508        -0.57301
C         46.44111        50.70544        -0.70597
C         47.67829        52.88790        -0.68384
C         46.45046        52.14654        -1.15493
C         47.67271        54.29163        -0.53970
C         46.42351        55.01915        -0.68935
C         47.64514        57.15101        -0.37591
C         46.42487        56.44258        -0.55048
C         47.67061        58.58076        -0.34192
C         46.40068        59.34552        -0.65577
C         47.64596        61.43455        -0.00037
C         46.40393        60.78377        -0.16840
C         48.90262        37.94947         0.20500
C         50.13483        40.04120        -0.04434
C         48.95372        39.30158        -0.16213
C         50.16126        41.46086        -0.19265
C         48.91522        42.17452        -0.30380
C         50.13620        44.29987        -0.37119
C         48.91700        43.56964        -0.37371
C         50.12906        45.72513        -0.44921
C         48.88874        46.44869        -0.40476
C         50.12020        48.55899        -0.57824
C         48.90835        47.86844        -0.42478
C         50.10162        50.00125        -0.78414
C         48.91102        50.71951        -0.77411
C         50.12056        52.85328        -0.55263
C         48.91828        52.16917        -0.72054
C         50.09875        54.19003         0.13123
C         48.87727        55.00338        -0.26593
C         50.10191        57.15158        -0.07978
C         48.88560        56.41958        -0.22246
C         50.11462        58.56442        -0.08881
C         48.86620        59.27969        -0.17454
C         50.09671        61.39940         0.13779
C         48.86907        60.73016        -0.04544
C         51.36706        42.18344        -0.16195
C         52.60183        44.32805        -0.25821
C         51.38573        43.59489        -0.26184
C         52.62303        45.72972        -0.34370
C         51.36035        46.44934        -0.43256
C         52.60684        48.65388        -0.29925
C         51.34894        47.85055        -0.51740
C         52.65729        49.89322        -1.19160
C         51.35662        50.69046        -1.12349
C         52.64777        52.92282        -0.77129
C         51.36791        52.20510        -0.92596
C         52.66628        54.25190        -0.43217
C         51.43029        54.94905         0.03609
C         52.62025        57.21219        -0.27554
C         51.39491        56.44715         0.01985
C         52.60607        58.59704        -0.11479
C         51.34516        59.28742        -0.00536
C         52.55353        61.40679         0.37709
C         51.32743        60.70998         0.14688
C         53.84584        46.45350        -0.36607
C         55.07958        48.58651        -0.49247
C         53.89087        47.86017        -0.42632
C         55.08851        50.02874        -0.59366
C         53.89852        50.70741        -0.87083
C         55.19875        52.91602        -0.79499
C         53.89425        52.17157        -1.03830
C         55.13056        54.36014        -0.48630
C         53.92013        55.00169        -0.43050
C         55.17293        57.27204        -0.32174
C         53.86719        56.48645        -0.50229
C         55.06437        58.67790         0.07933
C         53.84941        59.33217         0.06295
C         54.96256        61.40924         0.86255
C         53.78197        60.75103         0.40523
C         56.30546        50.75437        -0.32776
C         57.48500        52.86512         0.18244
C         56.37203        52.14049        -0.34257
C         57.52461        54.25946         0.24385
C         56.46523        55.08249        -0.46676
C         57.42477        57.11266         0.70816
C         56.37413        56.50384         0.04126
C         57.40847        58.52949         0.98845
C         56.36370        59.40287         0.32626
C         57.27517        61.30584         1.67822
C         56.18065        60.74272         0.99440
C         58.56170        54.92111         0.93421
C         59.60530        56.94648         1.86097
C         58.56133        56.31361         1.15713
C         59.57405        58.32539         2.14359
C         58.45063        59.12238         1.68979
C         59.50421        61.11123         2.70471
C         58.42067        60.54383         1.99838
C         60.62989        58.96112         2.84358
C         60.59022        60.32875         3.10877
O         51.25191        51.57594        -2.27933
O         54.72539        52.63865        -2.15885
O         41.55206        39.35288        -0.60327
O         39.33137        52.49406        -2.03092
O         45.20956        40.68741        -1.93670
O         34.31822        60.47118         1.89667
O         51.64354        55.67533         1.30438
O         42.56467        44.20337        -2.06874
O         54.64207        56.97890        -1.66687
O         43.32957        54.72574        -2.44767
O         43.47393        34.61798        -0.58738
H         43.39486        35.43014        -1.15222
O         46.57762        52.09739        -2.62583
H         46.45614        53.01012        -2.96497
O         38.87429        59.59193        -2.15522
H         38.11182        60.17329        -2.36112
O         40.14130        57.27682        -2.35248
H         39.62388        58.06656        -2.63854
O         47.85504        39.84629        -2.20166
H         47.00260        40.17362        -2.57849
O         34.90517        61.79336        -1.53377
H         34.82028        60.91416        -1.95706
O         43.70545        44.87235        -2.62626
H         44.34966        44.13989        -2.79116
O         46.28163        59.38162        -2.10254
H         47.03649        59.89491        -2.45814
O         52.54030        49.15930         1.06812
H         52.48590        48.39025         1.67317
O         42.08001        42.26026         1.78634
H         41.83984        41.43010         2.25284
O         33.19536        54.37131         2.87328
H         34.01287        53.85959         3.06034
O         41.49317        51.01124         1.26569
H         41.65137        50.13199         1.67298
O         56.88628        55.19438        -1.86339
H         56.16896        55.68593        -2.32785
O         43.37111        37.19225        -1.47850
H         42.51390        37.62623        -1.68896
O         40.02805        58.52720         1.14155
H         40.82741        58.05974         1.48153
O         35.81001        56.63132        -1.49999
H         36.37909        56.14487        -2.13366
O         33.17266        57.19559         2.85253
H         33.12493        56.24474         3.13599
O         46.76408        43.57627         1.54105
H         46.12920        42.97899         1.99021
O         45.18083        45.83966         1.67399
H         45.89257        45.22009         1.97163
O         47.76159        48.78425         1.42514
H         47.56109        47.90554         1.81469
O         35.79440        50.22104         2.40768
H         36.64899        49.76358         2.56144
O         45.33708        58.57309         1.32732
H         44.55686        58.11658         1.70619
O         41.70377        56.52276         0.90850
H         41.03862        55.92276         1.31021
O         36.00119        57.13557         2.12927
H         35.28543        57.44286         2.73473
O         37.36867        48.46734        -1.84599
H         38.08773        48.92808        -2.32877
O         56.90326        59.70834        -1.01124
H         56.95378        58.86346        -1.50790
O         52.79430        49.43747        -2.55549
H         52.59522        50.20776        -3.13422
O         47.30436        44.19265        -2.02899
H         48.05331        44.59110        -2.52048
O         49.89368        53.86960         1.54859
H         50.29497        54.61679         2.05499
O         42.62754        57.38315        -2.55345
H         42.68583        56.46697        -2.91822
H         29.50519        56.56832         0.92090
H         28.23966        58.62534         0.79640
H         30.24165        62.38203         0.06774
H         28.14758        61.07128         0.33682
H         32.02570        52.33824         1.13302
H         30.77982        54.47408         0.98572
H         32.64875        62.45128        -0.17687
H         34.58732        48.04243         1.18488
H         33.22928        50.23048         0.87583
H         35.35292        62.62044         0.29901
H         36.89021        43.81345         0.67670
H         35.67375        45.90687         0.70986
H         37.69315        62.61993        -0.00133
H         39.27011        39.84360         1.71179
H         38.10742        41.75147         0.93952
H         40.21629        62.53910         0.30052
H         42.12406        35.61022         1.99715
H         41.33191        37.85459         2.41364
H         42.70569        62.56707         0.09921
H         45.29404        32.34151         2.46047
H         43.11000        33.28508         1.81104
H         45.19580        62.51533         0.26357
H         47.42173        33.47983         1.84025
H         48.63512        35.41422         0.99674
H         47.66156        62.51047         0.23387
H         49.82716        37.45711         0.54587
H         51.06603        39.52297         0.23379
H         50.09458        62.49154         0.27203
H         52.31933        41.63913        -0.07549
H         53.55316        43.77963        -0.18678
H         52.51281        62.48505         0.59343
H         54.79107        45.88865        -0.37654
H         56.04418        48.05721        -0.45613
H         54.87168        62.44012         1.23925
H         57.18893        50.18124        -0.00762
H         58.31816        52.29283         0.62046
H         57.19972        62.33794         2.05441
H         59.36999        54.31687         1.37501
H         60.46531        56.34786         2.19710
H         59.48645        62.18522         2.93986
H         61.48975        58.36107         3.17463
H         61.42199        60.79930         3.65189
