         671
 CSIRO Nanostructure Databank - Neutral Graphene Oxide Data Set
C          6.09532        31.37972        -0.65670
C          6.09960        32.70419        -0.98430
C          8.55730        27.20051         0.25760
C          8.49962        28.58874         0.28155
C          7.31119        29.32054        -0.02517
C          8.51467        31.48104        -0.18060
C          7.29600        30.70026        -0.23217
C          8.53718        32.80225        -0.56856
C          7.30814        33.49615        -0.90870
C          8.45772        35.69724        -0.72118
C          7.29451        34.86896        -1.08036
C          8.51031        37.13128        -0.96552
C         10.99919        22.97179         0.99242
C         10.99053        24.31815         0.76335
C          9.77365        25.07902         0.56510
C         10.98917        27.20539         0.98312
C          9.75445        26.45734         0.53095
C         10.99874        28.65688         0.62031
C          9.73005        29.35448         0.58473
C         11.04998        31.52611         0.14176
C          9.74470        30.84679         0.34181
C         11.07826        32.86615        -0.28604
C          9.84068        33.51044        -0.85644
C         11.03854        35.73795        -0.67332
C          9.79478        34.98018        -0.51492
C         10.97364        37.13461        -0.72638
C          9.69903        37.83758        -0.81306
C         10.85644        39.97806        -0.48364
C          9.70066        39.27608        -0.78011
C         10.87195        41.42597        -0.30162
C         13.49204        18.71270         1.97592
C         13.44876        20.13157         1.77498
C         12.25834        20.78649         1.50470
C         13.44319        22.96982         1.55788
C         12.29088        22.18698         0.95270
C         13.44617        24.44150         1.33395
C         12.31268        25.02054         0.51634
C         13.48612        27.19463         0.63511
C         12.29606        26.52014         0.66504
C         13.47008        28.68327         0.30354
C         12.26119        29.41486         0.91445
C         13.47429        31.53813         0.30247
C         12.24647        30.85727         0.44823
C         13.50111        32.89502        -0.07305
C         12.29757        33.57873        -0.34783
C         13.49888        35.71904        -0.64981
C         12.30801        35.02600        -0.62174
C         13.52251        37.21715        -0.88800
C         12.18503        37.89786        -0.65567
C         13.27524        39.95269         0.14946
C         12.10385        39.25794        -0.40679
C         13.20498        41.40354         0.52309
C         11.96299        42.11640         0.12928
C         13.26429        44.26780         0.09040
C         11.92890        43.61044         0.37943
C         13.20265        45.69102        -0.42143
C         15.72329        14.93607         0.51298
C         15.87085        15.99033         1.39770
C         14.67455        16.52080         2.14852
C         15.94633        18.70112         2.15966
C         14.68751        18.02808         2.09235
C         15.93031        20.14408         2.08753
C         14.71715        20.84610         1.83457
C         15.92167        22.98466         1.86165
C         14.72985        22.25818         1.75143
C         15.91105        24.50782         1.96265
C         14.72474        25.17735         1.29823
C         16.04047        27.21561         0.75331
C         14.75102        26.46980         0.84117
C         16.00467        28.71369         0.69095
C         14.73628        29.44882         0.60468
C         15.96608        31.58984         0.65763
C         14.73240        30.82193         0.53272
C         15.99860        32.95231         0.35603
C         14.83326        33.49366        -0.46741
C         16.06654        35.80010        -0.30520
C         14.81001        35.01937        -0.60345
C         16.05207        37.32374        -0.17758
C         14.65167        37.90562        -0.14979
C         15.65468        39.94818         0.75355
C         14.56047        39.23419         0.12830
C         15.75019        41.42214         0.39816
C         14.47559        42.21407         0.86143
C         15.72455        44.30890        -0.03251
C         14.43716        43.61273         0.25700
C         15.72610        45.78441        -0.08279
C         14.49816        46.46268        -0.30991
C         15.72871        48.55719        -0.63717
C         14.50614        47.82632        -0.56263
C         15.74281        49.90383        -1.07103
C         17.72619        11.80943        -2.81086
C         17.83490        12.84674        -1.86031
C         16.70059        13.42318        -1.21144
C         18.13514        14.89324         0.14322
C         16.83274        14.40779        -0.21935
C         18.29377        15.89178         1.15739
C         17.14143        16.60119         1.66772
C         18.40273        18.67731         2.46905
C         17.19295        17.95733         2.19072
C         18.33949        20.17119         2.77076
C         17.12986        20.88423         2.22307
C         18.39652        23.03276         2.16348
C         17.14053        22.28493         2.06397
C         18.43018        24.43457         2.02036
C         17.21463        25.07445         1.40572
C         18.38735        27.28727         1.60215
C         17.25928        26.58184         1.34313
C         18.52301        28.72378         1.11924
C         17.20673        29.48021         1.05034
C         18.46822        31.59311         0.86971
C         17.17168        30.84716         0.99192
C         18.34737        33.06991         1.26915
C         17.19073        33.76348         0.56911
C         18.48224        36.01961         0.43065
C         17.24278        35.11231         0.29465
C         18.21365        37.32456         1.17347
C         16.95294        37.84730         0.96616
C         18.39358        40.33271         1.79110
C         16.57387        39.17430         1.40355
C         18.25807        41.67761         1.21925
C         17.04748        42.18923         0.69994
C         18.23902        44.43691         0.35583
C         17.03879        43.58591         0.18264
C         18.19450        45.80070         0.22204
C         16.94308        46.49761        -0.04477
C         18.20195        48.61159        -0.48712
C         16.96017        47.89255        -0.34302
C         18.19675        49.94865        -0.98941
C         16.95153        50.59065        -1.28103
C         18.15570        52.56677        -2.09034
C         16.97133        51.90617        -1.84352
C         18.11101        53.88470        -2.82708
C         19.83556         8.54504        -5.86812
C         19.93355         9.53487        -4.85955
C         18.78098        10.16145        -4.33266
C         20.18367        11.63440        -2.95279
C         18.87517        11.20218        -3.37634
C         20.29589        12.66926        -2.00825
C         19.14556        13.30176        -1.48876
C         20.55537        14.84907        -0.18236
C         19.27322        14.35756        -0.51202
C         20.73647        15.61886         0.97208
C         19.60405        16.07318         1.66740
C         20.89383        18.80517         2.60863
C         19.67550        18.08919         2.68818
C         20.79866        20.19387         2.28466
C         19.61494        20.89021         2.40529
C         20.81609        23.06940         2.48973
C         19.61183        22.33778         2.34018
C         20.80971        24.47908         2.54271
C         19.60712        25.16738         2.26353
C         20.85881        27.37416         2.28629
C         19.52129        26.67374         2.42404
C         20.89277        28.73957         2.05287
C         19.55882        29.48485         1.96711
C         20.88135        31.60542         1.42860
C         19.62565        30.91597         1.53421
C         20.90110        33.07458         1.47957
C         19.67348        33.76103         1.04188
C         20.88927        35.95818         1.42434
C         19.71594        35.24826         0.87657
C         20.79865        37.39266         1.59001
C         19.41490        38.02579         1.90364
C         20.77256        40.30336         1.90706
C         19.49663        39.53885         1.65580
C         20.74243        41.71185         1.35402
C         19.50477        42.35441         1.04815
C         20.67249        44.54662         0.90903
C         19.55020        43.69500         0.36836
C         20.71103        45.94767         0.47456
C         19.40096        46.67378         0.54696
C         20.67059        48.64681        -0.40974
C         19.43187        47.99335        -0.17400
C         20.67737        50.00825        -0.90914
C         19.42469        50.64980        -1.19049
C         20.63157        52.70206        -1.85406
C         19.40872        51.97082        -1.72314
C         20.62469        54.04318        -2.36148
C         19.41950        54.63881        -2.84420
C         20.65872        56.65597        -3.48507
C         19.44843        55.89987        -3.40890
C         20.69356        57.90242        -4.15412
C         22.00453         6.74151        -8.34437
C         20.86916         7.18718        -7.66862
C         22.28841         8.42353        -6.10762
C         20.99109         8.03931        -6.53689
C         22.45105         9.15315        -4.80373
C         21.23644         9.95480        -4.40392
C         22.68411        11.51430        -3.15633
C         21.36249        10.99432        -3.49092
C         22.81506        12.58686        -2.27638
C         21.64867        13.01319        -1.41993
C         23.06682        14.95241        -0.61292
C         21.70491        14.50065        -1.08602
C         23.20516        15.98429         0.40511
C         22.15520        15.68517         1.44793
C         23.29134        18.68773         1.90486
C         22.23347        18.20638         2.69273
C         23.28606        20.16297         1.69591
C         22.03537        20.92250         1.94738
C         23.38907        22.99859         2.66407
C         22.07937        22.30090         2.53305
C         23.36537        24.47660         2.98539
C         22.04945        25.21168         2.94503
C         23.39488        27.37369         2.67743
C         22.04211        26.74195         3.00496
C         23.38199        28.76506         2.35704
C         22.13859        29.44235         2.09241
C         23.35447        31.67219         1.91898
C         22.16738        30.84247         1.66665
C         23.32114        33.04443         1.85524
C         22.08115        33.77902         1.62259
C         23.30176        35.93981         2.01290
C         22.05393        35.23339         1.67353
C         23.29367        37.47513         1.88408
C         21.98552        38.12578         1.64309
C         23.23657        40.24825         1.55187
C         22.04133        39.56544         1.61025
C         23.23633        41.73468         1.78994
C         21.95884        42.38920         1.29791
C         23.20481        44.63015         1.19143
C         21.93263        43.85561         1.27778
C         23.20414        45.83392         0.25496
C         21.90163        46.61147         0.27026
C         23.18582        48.59314        -0.49403
C         21.89591        47.96826        -0.16365
C         23.18578        50.03102        -0.93962
C         21.88187        50.72543        -1.06937
C         23.08421        52.84496        -1.54569
C         21.86199        52.09006        -1.47144
C         23.05841        54.17205        -1.95084
C         21.83971        54.79794        -2.39861
C         23.01106        57.05582        -2.72838
C         21.84774        56.10922        -2.92611
C         23.12075        58.10535        -3.81123
C         21.92265        58.58457        -4.39904
C         23.18630        60.34696        -5.52498
C         21.96939        59.71618        -5.25922
C         23.27828         7.13743        -7.93770
C         24.73445         8.45097        -6.41871
C         23.44230         7.99165        -6.81342
C         24.89072         9.45224        -5.42881
C         23.74352         9.91868        -4.71474
C         25.12768        11.61891        -3.60194
C         23.85118        11.01107        -3.83721
C         25.23325        12.73160        -2.73714
C         24.06927        13.22774        -2.08718
C         25.42714        15.12493        -1.18768
C         24.16062        14.39692        -1.24700
C         25.47972        16.39528        -0.34844
C         24.35421        16.74377         0.55476
C         25.71779        18.85059         1.08389
C         24.57873        17.91630         1.58180
C         25.78374        20.23390         1.39689
C         24.59762        20.85907         2.08733
C         25.84928        23.08269         2.06830
C         24.52929        22.38435         1.85575
C         25.77653        24.59101         2.11387
C         24.71555        25.19391         3.08640
C         25.85374        27.39778         2.60984
C         24.62619        26.69858         2.79307
C         25.85583        28.79647         2.37163
C         24.61635        29.46173         2.22757
C         25.89650        31.64042         1.92925
C         24.61279        30.89840         1.89721
C         25.87463        33.10507         2.17533
C         24.56206        33.82260         2.07643
C         25.86640        36.02629         2.05267
C         24.56706        35.26046         1.87269
C         25.79795        37.45172         1.49929
C         24.54017        38.15904         1.54529
C         25.67576        40.28710         1.06299
C         24.49760        39.56494         1.33440
C         25.68013        41.72540         1.07754
C         24.50712        42.42424         1.34886
C         25.72663        44.60902         0.88278
C         24.50107        43.88872         1.27916
C         25.68341        45.97992         0.66949
C         24.44927        46.67440         0.41545
C         25.67373        48.76636        -0.09962
C         24.44284        48.00316         0.02314
C         25.62448        50.18695        -0.46218
C         24.43441        50.80698        -0.74861
C         25.63369        53.02389        -1.08420
C         24.34432        52.26554        -0.98533
C         25.64443        54.22287        -1.97663
C         24.33423        54.86821        -2.26504
C         25.65406        56.99536        -2.82722
C         24.34320        56.35366        -2.44559
C         25.59109        58.23592        -3.59417
C         24.36981        58.73679        -4.09805
C         24.36901        59.87196        -4.96849
C         26.16280        10.03104        -5.15618
C         27.58356        11.64923        -3.93666
C         26.30872        11.08689        -4.24068
C         27.73678        12.72877        -3.04556
C         26.53371        13.31102        -2.45111
C         27.94795        14.93814        -1.23467
C         26.63755        14.41597        -1.63376
C         28.02795        16.27426        -0.55945
C         26.80976        16.97959        -0.09954
C         28.03257        19.06320         0.10181
C         26.85314        18.24839         0.45393
C         28.07015        20.52236         0.45843
C         26.93224        21.04474         1.23258
C         28.25639        23.18516         1.47783
C         26.99821        22.42950         1.65741
C         28.31197        24.52530         1.76710
C         27.14328        25.19803         2.38094
C         28.40856        27.41981         2.29322
C         27.16182        26.68998         2.59219
C         28.37997        28.84626         2.34181
C         27.12547        29.52673         2.31262
C         28.34648        31.66984         2.08075
C         27.14967        30.92929         2.20775
C         28.32270        33.12189         1.86670
C         27.12235        33.81966         1.88707
C         28.31159        35.94281         1.27000
C         26.99730        35.22586         1.38150
C         28.21020        37.33479         0.68273
C         26.93356        38.08721         1.04531
C         28.18544        40.29894         0.76877
C         26.88425        39.53290         0.57227
C         28.17183        41.71882         0.76300
C         26.93896        42.45331         0.88186
C         28.20517        44.58215         0.78179
C         26.96152        43.85984         0.86844
C         28.20351        46.00812         0.59415
C         26.93790        46.79758         0.82725
C         28.13453        48.77710        -0.23388
C         26.89041        48.14075         0.14740
C         28.12907        50.12848        -0.61215
C         26.92080        50.95012        -0.18518
C         28.10532        52.83053        -1.61990
C         26.99069        52.46146        -0.64944
C         28.09630        54.11974        -2.18704
C         26.92923        54.93637        -2.23151
C         26.89515        56.19746        -2.79208
C         29.00454        13.29297        -2.76498
C         30.42043        14.91632        -1.53189
C         29.18158        14.39787        -1.87876
C         30.57528        16.12317        -0.60571
C         29.30339        17.03243        -0.92176
C         30.29697        19.28278        -0.68528
C         29.28609        18.42885        -0.34802
C         30.51795        20.57989        -0.09221
C         29.37647        21.21891         0.46786
C         30.70097        23.21657         0.85582
C         29.44832        22.53073         0.94073
C         30.76018        24.60912         1.15514
C         29.46115        25.36663         1.26689
C         30.81806        27.40471         1.82569
C         29.59114        26.73398         1.90457
C         30.89061        28.83028         2.33482
C         29.58928        29.57946         2.19170
C         30.74343        31.69406         1.41843
C         29.56702        30.96565         2.01182
C         30.80787        33.17747         1.76633
C         29.54930        33.86264         1.74263
C         30.80325        35.90811         0.92900
C         29.50036        35.26749         1.40125
C         30.75355        37.42578         1.12990
C         29.43922        38.16033         1.03170
C         30.64027        40.32195         0.59578
C         29.41650        39.62358         0.75746
C         30.65238        41.72714         0.53941
C         29.41345        42.43018         0.70160
C         30.69065        44.55966         0.83697
C         29.41084        43.85135         0.76732
C         30.67868        46.04895         0.47958
C         29.37517        46.68622         0.24873
C         30.55977        48.63252        -0.73846
C         29.35130        48.03134        -0.24072
C         30.48828        49.94716        -1.26181
C         29.30492        50.70923        -1.17835
C         29.24332        52.02886        -1.72063
C         31.95116        16.79158        -0.65942
C         33.21683        18.98759        -0.40918
C         32.18825        18.12916        -0.88993
C         33.07243        20.40051        -0.21292
C         31.81853        21.14607         0.00389
C         33.13021        23.20398         0.49968
C         31.88897        22.50490         0.46957
C         33.18252        24.59145         0.80746
C         31.97222        25.30503         1.11421
C         33.25282        27.39959         1.33603
C         32.02661        26.72804         1.42201
C         33.38927        28.83553         1.81026
C         32.07543        29.59937         1.80347
C         33.26058        31.74766         1.42519
C         32.03220        30.93967         1.59753
C         33.15479        33.19509         1.01014
C         32.01111        33.87588         1.71275
C         33.30896        36.02315         1.28850
C         32.03044        35.37488         1.79678
C         33.22361        37.38895         0.61981
C         31.97942        38.17361         0.91087
C         33.16602        40.35907         0.66120
C         31.90632        39.54249         0.28958
C         33.15799        41.72824        -0.03282
C         31.90435        42.47391         0.39342
C         33.22059        44.63331         0.70146
C         31.94094        43.82020         0.60842
C         33.09568        45.92540        -0.07997
C         31.90383        46.63076        -0.12470
C         31.77816        47.90561        -0.74078
C         34.28246        21.10795        -0.06018
C         35.57268        23.19454         0.16320
C         34.34954        22.50059         0.19570
C         35.63138        24.59790         0.36826
C         34.41756        25.29029         0.71651
C         35.63273        27.40227         0.58011
C         34.44294        26.71045         0.89546
C         35.55682        28.85357         0.36607
C         34.41168        29.57392         0.96661
C         35.68981        31.76129         0.60755
C         34.53928        31.03623         1.17582
C         35.68096        33.19418         0.76244
C         34.50178        33.88182         1.08597
C         35.77625        36.03656         0.95220
C         34.48279        35.31318         1.11635
C         35.77371        37.52394         0.76317
C         34.47687        38.23143         0.66691
C         35.69384        40.31972         0.22431
C         34.45144        39.57744         0.46041
C         35.66241        41.71925         0.14777
C         34.44766        42.47889         0.23094
C         34.45703        43.83561         0.39103
C         36.84377        25.31251         0.22485
C         38.07182        27.48566         0.24280
C         36.87813        26.73235         0.31454
C         38.05846        28.97512         0.45382
C         36.77839        29.58515        -0.14614
C         38.00209        31.78946        -0.18112
C         36.77201        31.08675         0.07316
C         38.09541        33.13237         0.13099
C         36.92542        33.89278         0.50786
C         38.17316        36.00756         0.13402
C         36.97794        35.28519         0.55006
C         38.12105        37.43739        -0.03891
C         36.97484        38.19623         0.21111
C         36.90122        39.59563         0.02856
C         39.26198        29.62811        -0.14338
C         40.47193        31.77845        -0.68791
C         39.17458        31.00555        -0.75015
C         40.56332        33.06426        -0.33153
C         39.42273        33.83617         0.27503
C         39.33594        35.29118        -0.11254
O         23.29656        36.81699         3.21287
O         29.98228        37.85163         2.33841
O         16.26660        27.86885        -0.55415
O         13.09196        23.88449         2.64744
O         22.51645        20.72650         0.55125
O         12.96345        40.39540         1.56264
O         21.68608        31.03390         0.28011
O          9.58637        30.34872         1.71843
O         23.89535        44.64970         2.46251
O         15.74180        35.41598        -1.69029
O         34.35934        29.22685        -0.45040
O         19.77508        16.69992         2.90325
O         28.12637        15.02713         0.24597
O         31.02950        35.53421        -0.38944
O         25.34776        31.22688         0.63030
O         23.31501        48.94237        -1.93581
O         24.80192        53.16065         0.11849
O         22.59160        24.68844         4.21328
O         22.50489        15.16971         2.49504
O         36.01419        36.94785         2.10772
O         27.38986        25.72319         3.70108
O         22.85096        22.24917         3.78678
O         19.98910        34.33700        -0.26665
O         16.46990        43.75763        -1.20057
O         17.28926        39.78000         2.42518
O         25.20458        33.47439         3.42647
O         25.23410        16.46984        -1.80491
O          8.99409        35.32186         0.63523
O         30.79229        45.59767         1.87665
O         20.98358        44.38333         2.33153
O         25.00803        54.05411        -3.30627
O         31.22183        18.83998        -1.63539
O         34.20553        31.49725         2.53631
O         27.63843        20.10500        -0.89272
O         25.07319        57.05514        -1.39791
O         37.98723        29.28230         1.90322
H         38.81173        28.95481         2.32036
O         24.23602        22.65886         0.45196
H         23.54441        22.01271         0.13837
O         36.80378        29.31777        -1.57557
H         35.87974        29.42434        -1.89739
O         26.99794        50.94389         1.26436
H         27.60677        51.67785         1.51658
O         23.18482        41.92185         3.26014
H         23.25119        42.89615         3.41677
O         33.08381        40.64754         2.07682
H         33.03503        39.79882         2.56635
O         26.97347        47.12088         2.27241
H         26.87903        46.27842         2.76710
O         33.11898        37.02396        -0.82680
H         32.30888        36.40175        -0.88219
O         25.40941        25.03915         0.77863
H         24.97506        24.28677         0.30293
O         25.05067        17.31249         2.83201
H         25.79395        16.70659         2.62364
O         19.01531        28.67252        -0.25245
H         18.27818        28.29546        -0.79198
O         13.44886        15.98502         1.65707
H         13.32123        16.29738         0.73817
O         18.20022        20.29045         4.23789
H         19.02874        19.95451         4.64168
O         18.81161        36.44063        -0.93667
H         19.17339        35.64190        -1.39005
O         17.06004        54.71840        -2.31680
H         17.28569        54.96649        -1.39697
O         12.44220        29.43205         2.37226
H         11.68144        29.94254         2.73396
O         23.28696        45.22048        -1.07208
H         23.24285        45.93763        -1.74064
O         12.79493        45.65322        -1.81307
H         13.52915        45.26161        -2.33142
O         14.51782        42.37966         2.28825
H         14.10953        41.57063         2.67724
O          9.99395        33.46827        -2.31394
H         10.23869        32.55516        -2.57293
O         22.56117         8.08349        -3.77077
H         21.76954         7.51185        -3.86924
O         27.34873        53.25093         0.52004
H         26.50829        53.43638         1.00126
O         19.24088        47.00594         1.97907
H         19.59280        46.24978         2.50021
O         10.91554        27.16423         2.45747
H         11.61975        27.77470         2.79035
O         38.94043        30.81476        -2.18763
H         38.13737        30.23652        -2.26994
O         29.08308        25.69297        -0.12611
H         28.99705        24.84816        -0.61829
O         24.79309        20.63938         3.50214
H         24.86249        19.67173         3.65094
O         13.80776        37.40049        -2.31212
H         14.75552        37.15466        -2.44062
O         21.76544        12.29762        -0.15862
H         21.75763        11.33650        -0.34991
O         19.89516        43.47331        -1.03806
H         19.12667        43.04479        -1.47242
O         25.16692        24.98123         4.43092
H         24.37523        24.87994         5.00406
O         10.87650        44.23915        -0.34530
H         11.23700        44.57328        -1.19791
O         19.24181        37.79518         3.32108
H         19.74761        38.49418         3.79404
O         26.71946        39.46683        -0.89248
H         27.34738        38.76790        -1.21205
O         39.70871        33.85952         1.72451
H         38.97251        34.34151         2.15961
O         15.63291        41.31377        -1.05019
H         15.91432        42.16879        -1.46363
O         26.14730        36.14174         3.46288
H         25.30961        36.40511         3.90755
O         21.79178        27.07940         4.42069
H         22.25677        26.38703         4.95138
O         33.86965        28.79847         3.18743
H         34.07645        29.73498         3.43105
O         22.65579        57.80162        -1.51702
H         23.51179        58.02051        -1.07362
O         33.39778        45.03648         2.09890
H         32.52893        45.40611         2.39876
O         29.23434        17.16108        -2.36417
H         29.93189        17.80490        -2.63084
O         30.54524        15.69110         0.77141
H         29.76700        15.09232         0.88872
O         16.62285        37.86991        -1.39472
H         17.51185        37.44681        -1.51854
O         31.85851        39.31833        -1.16047
H         32.39558        38.49741        -1.35336
O         20.78079        40.45851         3.37834
H         21.59413        40.98214         3.60530
O         19.11793        26.89042         3.83086
H         19.95018        26.82863         4.37088
O         32.71611        33.26591        -0.39680
H         32.16748        34.10935        -0.50199
O         33.12263        41.59198        -1.47040
H         32.51561        40.83959        -1.69329
O         12.64649        22.01645        -0.46265
H         11.87874        21.61471        -0.91973
O         31.13075        28.72152         3.78099
H         32.08964        28.50670         3.89758
O         31.77708        35.82622         3.14161
H         32.55138        35.59821         3.69665
O         28.19626        37.19983        -0.77382
H         27.54485        36.48410        -0.97441
O         15.81998        24.83285         3.36926
H         14.93920        24.52089         3.67960
O         18.80364        31.56732        -0.54873
H         19.05486        30.63698        -0.77079
O         17.21618        24.65759         0.00554
H         18.00558        25.03954        -0.43192
O         21.47314        15.20420        -2.34191
H         21.75705        16.13618        -2.23405
O         19.03120        29.55060         3.32635
H         18.97859        28.62041         3.68483
O         18.12315        33.14039         2.69543
H         17.39714        32.52578         2.93272
O         30.48972        31.66678        -0.02486
H         31.22917        32.17276        -0.45440
O         12.67066        24.76339        -0.87501
H         12.02883        25.23542        -1.44502
O         22.38561        17.23007         3.58862
H         23.31917        16.90824         3.57128
O         26.55144        35.07845        -0.03112
H         27.07911        34.35502        -0.43641
O         15.06190        32.95695        -1.80518
H         15.64572        33.60473        -2.26680
O         13.29228        28.74644        -1.14062
H         14.12538        28.41915        -1.54674
H          5.16124        30.80138        -0.71161
H          5.16574        33.20287        -1.28291
H          7.64618        26.63570         0.00367
H          6.37841        28.75517        -0.17459
H          6.36229        35.37315        -1.37877
H          7.58260        37.66539        -1.22113
H         10.04919        22.42573         1.11040
H          8.83572        24.52152         0.40873
H          8.74213        39.80669        -0.88095
H          9.94949        41.98512        -0.52291
H         12.55128        18.14217         1.95267
H         11.31836        20.21236         1.47369
H         11.70795        43.75524         1.47881
H         12.38938        46.23562         0.12205
H         14.71963        14.51530         0.34980
H         14.76099        16.19463         3.22215
H         13.56218        48.34243        -0.79129
H         14.79068        50.40229        -1.30550
H         16.72993        11.44826        -3.10641
H         15.69665        13.05454        -1.47080
H         16.01965        52.38797        -2.11163
H         17.83199        53.66106        -3.89586
H         18.84012         8.23544        -6.21926
H         17.78870         9.83995        -4.68279
H         18.51996        56.33479        -3.80690
H         19.76477        58.30354        -4.58655
H         21.89330         6.08016        -9.21518
H         19.86835         6.88735        -8.01083
H         23.21098        61.22321        -6.18803
H         21.04012        60.08758        -5.71384
H         24.16615         6.79378        -8.48741
H         25.61844         8.09473        -6.96828
H         26.53312        58.70339        -3.91615
H         25.32369        60.36833        -5.19396
H         27.04887         9.64076        -5.67878
H         28.47596        11.22420        -4.42052
H         29.01574        54.48961        -2.66672
H         27.82487        56.66815        -3.14521
H         29.89233        12.85995        -3.25085
H         31.32455        14.46395        -1.96891
H         31.38906        50.40194        -1.69898
H         30.11051        52.40518        -2.28419
H         32.71103        16.24894        -0.07352
H         34.19323        18.55039        -0.14748
H         34.00538        46.38462        -0.49668
H         32.67039        48.36729        -1.18917
H         35.22749        20.56332        -0.20774
H         36.49605        22.64732        -0.07795
H         36.61671        42.26464         0.06938
H         35.41954        44.35827         0.51476
H         37.76873        24.76162        -0.00041
H         39.03079        26.96531         0.10005
H         39.03051        37.94534        -0.39528
H         37.80262        40.14314        -0.28766
H         40.21073        29.07159        -0.20841
H         41.36038        31.25736        -1.07840
H         41.53968        33.57318        -0.36875
H         40.25577        35.82545        -0.39608
