         284
 CSIRO Nanostructure Databank - Neutral Graphene Oxide Data Set
C        -11.28625         0.62515        -0.29106
C        -10.08872         1.42777        -0.04758
C         -8.77095         0.68809        -0.16645
C         -7.61433         1.42545         0.53780
C         -6.33488         0.69330         0.76623
C         -5.08706         1.56188         1.10496
C         -3.76095         0.77060         1.19037
C         -2.46532         1.54292         1.22168
C         -1.15960         0.78808         1.05570
C          0.10489         1.51980         0.73507
C          1.34009         0.76424         0.36069
C          2.63561         1.49933         0.63784
C          3.85791         0.61175         0.35142
C          5.15787         1.33117         0.44941
C          6.36847         0.60483         0.90203
C          7.57546         1.35129         0.87059
C          8.70819         0.72402         0.12749
C         10.08351         1.36724         0.34998
C         11.01851         0.65702        -0.63632
C        -10.07481         2.78901        -0.03227
C         -8.78490         3.49659        -0.41476
C         -7.55666         2.94469         0.36247
C         -6.23579         3.40379        -0.38710
C         -4.94211         2.73854         0.13868
C         -3.65133         3.50739         0.12300
C         -2.51199         3.11142         1.07854
C         -1.15212         3.77880         0.69303
C          0.12531         3.00512         0.51517
C          1.33890         3.58680        -0.18971
C          2.65575         2.74744        -0.25795
C          3.93554         3.59585        -0.07817
C          5.17861         2.83468         0.37282
C          6.27584         3.36241         1.29288
C          7.59973         2.74750         1.00168
C          8.78818         3.52901         0.70937
C          9.92773         2.88856         0.27671
C         -8.74387         4.99992        -0.33748
C         -7.53312         5.69336        -0.33674
C         -6.20296         4.96187        -0.07273
C         -4.97466         5.57806        -0.77008
C         -3.66337         4.91650        -0.45682
C         -2.54928         5.88345        -0.03361
C         -1.18323         5.23608         0.23739
C          0.09881         5.88358        -0.19007
C          1.36038         5.07099        -0.37141
C          2.62802         5.86946        -0.06471
C          3.94342         5.09310        -0.19342
C          5.18668         5.89186         0.18951
C          6.55777         5.28223        -0.24576
C          7.69058         5.91809         0.48924
C          8.80406         5.03052         1.06349
C         -7.49910         7.10059        -0.32178
C         -6.28870         7.84104        -0.70015
C         -5.05205         7.06218        -1.03758
C         -3.75240         7.79871        -1.26887
C         -2.47825         7.10840        -0.94245
C         -1.20032         7.89327        -1.09016
C          0.10001         7.20071        -0.91923
C          1.40237         7.96371        -1.01433
C          2.68363         7.22594        -0.78055
C          3.96293         8.02494        -0.69084
C          5.23995         7.29638        -0.40680
C          6.48070         8.04709         0.03165
C          7.59220         7.26075         0.67417
C         -6.08789         9.29004        -0.44864
C         -4.95615         9.93986        -0.77550
C         -3.77288         9.31539        -1.49951
C         -2.45749         9.99292        -1.08615
C         -1.26266         9.37152        -0.98541
C          0.00353        10.05094        -0.46704
C          1.36042         9.51011        -1.01544
C          2.52911        10.07241        -0.20601
C          3.86852         9.52680        -0.38797
C          5.08449        10.12549         0.21551
C          6.26646         9.47935         0.35544
C        -11.28737        -0.72653        -0.34144
C        -10.18463        -1.54174         0.28997
C         -8.84778        -0.77712         0.32138
C         -7.53334        -1.48365         0.13857
C         -6.22738        -0.66632         0.04059
C         -5.01551        -1.46852         0.52111
C         -3.76893        -0.72333         0.90910
C         -2.46682        -1.35734         0.48849
C         -1.17687        -0.67095         0.72639
C         -0.02746        -1.36195         0.51632
C          1.30223        -0.70325         0.49702
C          2.48048        -1.39793         1.17162
C          3.82157        -0.83695         0.70117
C          5.06002        -1.49537         1.29859
C          6.35754        -0.84151         0.83177
C          7.50175        -1.54345         0.54126
C          8.78497        -0.82107         0.20819
C          9.47194        -1.32429        -1.09242
C         10.79523        -0.56269        -1.17332
C        -10.06284        -3.01881        -0.06733
C         -8.84424        -3.66996        -0.20854
C         -7.72450        -2.76326        -0.62585
C         -6.05577        -3.74898         0.74710
C         -4.94328        -2.92187         0.02045
C         -3.65783        -3.62367         0.45299
C         -2.43000        -2.82636         0.19508
C         -1.16647        -3.55886        -0.02882
C          0.04375        -2.67021        -0.24950
C          1.27236        -3.46516         0.19045
C          2.42508        -2.91887         0.97788
C          3.68915        -3.76002         1.33664
C          5.04887        -3.03274         1.19707
C          6.31179        -3.78959         0.87045
C          7.62494        -3.06013         0.55778
C          8.36163        -3.54072        -0.69227
C          9.41205        -2.84518        -1.19002
C         -8.66094        -5.08404        -0.30148
C         -7.41389        -5.79592        -0.26830
C         -6.17865        -5.25268         0.45359
C         -4.85260        -5.80089        -0.07082
C         -3.59423        -5.11469         0.39721
C         -2.24546        -5.80506         0.18151
C         -1.12965        -4.90037        -0.28028
C          0.12626        -5.46094        -0.85152
C          1.41832        -4.74779        -0.55780
C          2.63189        -5.58529        -0.29838
C          3.70052        -5.15631         0.67062
C          4.97179        -5.99275         0.74293
C          6.38223        -5.33374         0.68485
C          7.06636        -5.76935        -0.61811
C          7.84782        -4.76374        -1.43148
C         -7.37015        -7.14925        -0.56993
C         -6.11577        -7.99396        -0.73953
C         -4.81916        -7.25448        -0.37928
C         -3.62908        -7.99753         0.17703
C         -2.26554        -7.33197         0.12578
C         -1.12989        -8.28291        -0.03688
C          0.20712        -6.88597        -1.33514
C          1.56660        -7.11309        -2.00967
C          2.79025        -6.79962        -1.18305
C          3.78349        -7.81760        -0.70280
C          4.89485        -7.40112         0.24383
C          6.24320        -8.06776        -0.11076
C          7.01386        -7.06961        -0.97524
C         -6.16456        -9.40101        -0.17906
C         -5.06840       -10.10738         0.14558
C         -3.72957        -9.48521         0.35433
C         -2.48964       -10.27977         0.31091
C         -1.23401        -9.68670         0.16482
C          0.00391       -10.49408         0.08851
C          1.25861       -10.03310         0.08091
C          2.55077        -9.78215         0.21931
C          3.49759        -9.31536        -0.89509
C          4.84067       -10.02652        -0.94533
C          6.02517        -9.43442        -0.72920
O          2.14230         7.33074        -2.11748
O          1.41112        -0.06109        -0.82356
O          5.94166        -3.51267         2.24760
O         -7.58318         3.53995         1.64491
H         -6.86158         3.13589         2.19644
O          6.27904         7.60144        -1.35997
O         -3.84771        -8.53806         1.50997
O          4.74255        -7.12643         1.64819
O         -7.31013         0.88904         1.83797
O         -6.54236        -3.33517         1.78361
H         -6.52323        -5.14703         2.40487
O         -8.42627         0.62188        -1.54423
O          6.03132         4.01795         2.29797
O          6.70539         4.48273        -1.14530
O          9.70652        -1.15767         1.28015
H          9.51291        -2.08150         1.59109
O         -3.08989         1.07070         2.45055
O         -6.28621        -5.86231         1.76642
O          7.21916        -5.76732         1.73569
O         -5.95568         5.09314         1.27806
O         -0.18041         3.67449         1.77694
O          2.57416        -5.96446         1.12488
O         -4.60176        -1.39672         1.90602
O         -0.50578         7.28074        -2.23892
O          1.28190        -3.55675         1.63981
O          1.17607         4.20218        -1.51303
O         -3.93879         2.49283        -0.89173
O          4.97389        -1.20541         2.72163
H          5.53598        -1.88455         3.17032
O         -1.94017        -6.57756         1.37737
O         -3.04341         7.02593        -2.28670
O         -0.37963         6.05759         1.17330
O          1.58711        -7.41754        -3.18643
O         -5.97182         7.40574        -2.10550
O         -7.25241        -2.91845        -1.74550
O          3.86025        -0.42373        -0.68027
O          4.08446         8.97404        -1.76205
O         -3.95214         9.55387        -2.90933
H         -3.52568         8.80736        -3.38685
O          0.85478        -4.67621        -1.87835
O          2.32777        -1.06137         2.56499
H          3.11695        -1.41436         3.04827
O         -8.11197        -1.32475         1.45517
O         -3.00774         6.40201         1.23981
H         -3.07116         5.65192         1.88144
O         -2.58971        -1.84539        -0.90437
O         -5.97585        -0.37777        -1.34563
H         -6.84011         0.01884        -1.70532
O          2.83272        -9.52010        -2.13993
H          3.31522        -9.01563        -2.83113
O         10.62032         1.19939         1.67406
H         10.63308         0.22876         1.86331
O          0.12743        -7.82913        -0.21575
O          4.13595         4.29914        -1.36607
O         -0.23195         1.15943         2.12044
O         -3.69269        -4.40711         1.66897
O         -8.69904         3.24802        -1.83301
H         -8.60094         2.24446        -1.95890
O         -4.60029        -6.25230        -1.43482
O          6.99610        -8.31672         1.08054
H          7.12815        -7.43685         1.54845
O          5.61627         2.04575        -0.77287
O          4.01456        -7.04146        -1.93104
O          6.93218        -4.23920        -2.41940
H          7.38459        -3.51119        -2.89705
O          8.48798        -3.45407         1.66727
H          8.20408        -4.39318         1.91745
O         -6.06581        -8.22241        -2.18216
H         -5.79161        -7.36937        -2.59226
O          5.19875         6.11829         1.61380
H          4.28194         6.04230         1.96637
O          1.50223         9.97996        -2.36447
H          2.24933         9.47436        -2.76426
O          0.13785        -2.29673        -1.62808
H         -0.73523        -1.93379        -1.90063
O          2.70935         2.19717        -1.57277
H          2.92589         2.92407        -2.19949
O         -4.22762         4.88376        -1.79991
O         -0.01864         9.83403         0.95256
H          0.71581        10.34020         1.35782
O          2.51202         6.17814         1.35916
H          1.56759         6.13391         1.64458
O          8.72984        -1.03824        -2.30346
H          8.69889        -0.05510        -2.41352
O         -0.81733        -7.19245        -2.24775
H         -0.37252        -7.42910        -3.10099
O         -6.30218         3.15489        -1.76136
H         -5.38083         3.08973        -2.11038
O          2.70240         1.89466         2.01286
H          2.42489         1.13209         2.57425
O         -2.85438         3.69229         2.34124
H         -2.18334         3.40453         2.99834
O         -4.92656        -3.01379        -1.39480
H         -5.30547        -2.18819        -1.78775
O          8.37995         1.17765        -1.23182
H          7.43305         1.46263        -1.27301
O          8.72635         5.12108         2.49127
H          7.82477         4.82726         2.76391
O        -10.61471        -1.65349         1.68742
H         -9.80146        -1.82337         2.21934
O         -5.31982         2.16612         2.38344
H         -5.30768         1.46348         3.06807
O          3.56188        -3.99212         2.74772
H          2.77802        -4.57227         2.87445
H         11.57652        -0.99805        -1.81918
H         11.99659         1.13389        -0.81803
H         10.84017         3.48589         0.11135
H          9.79714         5.45096         0.75877
H          8.36719         7.81646         1.22573
H          7.10134        10.01225         0.83713
H          5.00401        11.16627         0.56533
H          2.44089        11.09002         0.20857
H         -0.04634        11.15341        -0.67984
H         -2.50572        11.08546        -0.94745
H         -4.88761        11.01819        -0.56330
H         -6.90606         9.83408         0.04777
H         -8.43406         7.66821        -0.18033
H         -9.67690         5.56438        -0.50690
H        -11.01982         3.35492        -0.07344
H        -12.19519         1.17077        -0.59190
H        -12.20595        -1.25873        -0.63093
H        -10.97153        -3.62123         0.10474
H         -9.56890        -5.70153        -0.41401
H         -8.28609        -7.61688        -0.96853
H         -7.13524        -9.91629        -0.23698
H         -5.16613       -11.16957         0.41933
H         -2.56735       -11.37632         0.35397
H         -0.14628       -11.58561        -0.00294
H          2.97264        -9.77417         1.24197
H          4.81652       -11.06193        -1.31992
H          6.94074       -10.03085        -0.87051
H          7.56498        -7.42660        -1.85991
H          8.70237        -5.27693        -1.95871
H          9.95191        -3.27651        -2.05262
