         424
 CSIRO Nanostructure Databank - Neutral Graphene Oxide Data Set
C          1.37818         3.34589         0.26536
C          0.19117         4.00919        -0.21482
C          1.13574         6.19032         0.47469
C          0.05911         5.36204        -0.19611
C          1.14955         7.68932         0.16255
C         -0.02989         8.37332        -0.16657
C          1.11486        10.53085        -0.08078
C         -0.04229         9.75842        -0.30545
C          1.09820        11.99283        -0.24377
C         -0.10098        12.69729        -0.47168
C          1.08654        14.81990        -0.56140
C         -0.11132        14.08640        -0.55192
C          1.05716        16.32117        -0.30890
C         -0.11974        17.11585        -0.81785
C          1.14736        19.20882        -0.44689
C         -0.07251        18.46486        -0.76644
C          1.15391        20.62878        -0.41080
C         -0.06963        21.40243        -0.29179
C          1.14838        23.44970        -0.98651
C         -0.07493        22.74275        -0.45626
C          1.16410        24.94221        -0.75288
C         -0.00920        25.67037        -0.88563
C          1.17601        27.77345        -0.59648
C         -0.00384        27.07489        -0.80617
C          1.16555        29.28457        -0.64725
C         -0.03436        29.91964         0.00883
C          1.20924        32.00450         0.33296
C         -0.01036        31.22192         0.37202
C          1.21398        33.40595         0.59388
C          0.00212        34.16851         0.67577
C          1.19565        36.26711         1.03358
C         -0.00075        35.54553         0.84474
C          1.24444        37.68454         1.13560
C          3.76531         3.47783         0.91194
C          2.53768         4.06601         0.49305
C          3.64683         6.29329         0.73967
C          2.49699         5.54047         0.12645
C          3.59015         7.78288         0.76233
C          2.32206         8.45561         0.36437
C          3.61386        10.58145         0.60920
C          2.30614         9.86356         0.27099
C          3.56243        12.13306         0.41901
C          2.30813        12.71772        -0.21541
C          3.61508        14.78352        -0.82529
C          2.30603        14.11536        -0.43789
C          3.62154        16.30378        -0.71611
C          2.34281        17.04888        -0.63878
C          3.61359        19.18719        -0.32482
C          2.36704        18.50753        -0.35960
C          3.62535        20.60947        -0.37385
C          2.39437        21.33003        -0.43550
C          3.62398        23.45723        -0.47552
C          2.41766        22.75431        -0.55697
C          3.63521        24.90584        -0.49214
C          2.40001        25.62843        -0.56472
C          3.64567        27.75678        -0.34799
C          2.40493        27.05752        -0.48864
C          3.64897        29.19410        -0.19169
C          2.44926        29.91972        -0.17202
C          3.68468        32.00649         0.29351
C          2.44461        31.31255         0.14375
C          3.69081        33.40662         0.58410
C          2.46219        34.08123         0.74535
C          3.75537        36.27703         1.06163
C          2.44851        35.50447         1.12237
C          3.70296        37.74715         0.89377
C          2.42805        38.39287         1.08412
C          6.19514         3.56464         1.32028
C          4.96638         4.19060         1.03244
C          6.04602         6.45984         1.42878
C          5.01550         5.65022         0.62260
C          6.08645         7.88241         0.86137
C          4.89087         8.47960         0.58018
C          6.06276        10.51258        -0.32689
C          4.73459         9.79258        -0.15806
C          6.09272        12.01471        -0.30147
C          4.84311        12.77169        -0.10087
C          6.12859        14.86984        -0.31923
C          4.87059        14.12253        -0.30449
C          6.11777        16.24649        -0.29097
C          4.82103        16.98319        -0.08223
C          6.06726        19.15322        -0.45801
C          4.86337        18.47242        -0.35216
C          6.09334        20.58760        -0.45083
C          4.86623        21.31225        -0.39804
C          6.10399        23.43284        -0.36240
C          4.86859        22.73879        -0.38540
C          6.10740        24.88740        -0.30024
C          4.86085        25.60269        -0.38003
C          6.11303        27.73338        -0.18647
C          4.86635        27.03639        -0.30580
C          6.12484        29.16314        -0.09383
C          4.89844        29.88363        -0.03528
C          6.16037        31.98890         0.22394
C          4.91147        31.29378         0.14867
C          6.16534        33.42842         0.36893
C          4.95266        34.12329         0.58401
C          6.14261        36.26858         0.40925
C          4.97093        35.55113         0.65105
C          6.13643        37.76923         0.19342
C          4.83702        38.43616         0.55590
C          8.63734         3.59290         1.23534
C          7.41953         4.27381         1.38006
C          8.69700         6.51640         1.26478
C          7.40342         5.76038         1.48059
C          8.61240         7.85111         0.64557
C          7.36746         8.52420         0.49945
C          8.56810        10.52094        -0.57570
C          7.33209         9.81056        -0.06921
C          8.58661        12.00747        -0.28529
C          7.38607        12.73227        -0.21965
C          8.62655        14.85693        -0.24004
C          7.38410        14.14443        -0.22238
C          8.64154        16.28266        -0.24128
C          7.36402        17.04189         0.00682
C          8.61536        19.16941        -0.48985
C          7.34365        18.38276        -0.73556
C          8.59609        20.56498        -0.47822
C          7.33076        21.30005        -0.47998
C          8.59912        23.48859        -0.60650
C          7.31958        22.70543        -0.42720
C          8.56551        24.80106         0.17164
C          7.30908        25.58498        -0.13391
C          8.58800        27.71343        -0.06524
C          7.33353        27.00870        -0.10847
C          8.60561        29.12884        -0.10172
C          7.36132        29.86679        -0.03317
C          8.68589        31.97688         0.32901
C          7.36474        31.27441         0.11774
C          8.63688        33.46732         0.07973
C          7.39379        34.15397         0.25297
C          8.61025        36.30750         0.19018
C          7.37441        35.57607         0.26155
C          8.63230        37.71047         0.44146
C          7.36066        38.41635         0.86758
C         11.05640         3.52281         0.83556
C          9.88697         4.24014         1.06366
C         11.13835         6.35062         0.50046
C         10.01740         5.73467         1.29206
C         11.10871         7.69434         0.13883
C          9.78715         8.33829        -0.18876
C         11.05643        10.53016        -0.35206
C          9.85766         9.83466        -0.23608
C         11.03971        11.96322        -0.45547
C          9.83020        12.69625        -0.33366
C         11.08787        14.85435        -0.36256
C          9.85067        14.13554        -0.31547
C         11.08957        16.27901        -0.35398
C          9.84519        16.99142        -0.34117
C         11.07618        19.13627        -0.41227
C          9.84897        18.44596        -0.40735
C         11.07137        20.57089        -0.38908
C          9.83818        21.28822        -0.37759
C         11.05967        23.39837        -0.11240
C          9.85444        22.70435        -0.30577
C         11.06410        24.86641        -0.04634
C          9.84738        25.57442        -0.03543
C         11.06563        27.70586        -0.16107
C          9.83366        26.99026        -0.07599
C         11.05856        29.13569        -0.23857
C          9.83942        29.82700        -0.21961
C         11.10410        32.01651        -0.30078
C          9.78573        31.31099        -0.49324
C         11.09269        33.45422        -0.26494
C          9.81925        34.16723        -0.15528
C         11.03086        36.34100        -0.18449
C          9.82261        35.61320        -0.08308
C         11.05078        37.72958         0.07006
C          9.83557        38.39328         0.40331
C         13.51874         3.45931         0.53122
C         12.32262         4.17318         0.63079
C         13.55835         6.27294         0.16154
C         12.34359         5.60652         0.44549
C         13.55812         7.68730        -0.02992
C         12.32516         8.39287        -0.09957
C         13.55359        10.49024        -0.40957
C         12.33216         9.81416        -0.31201
C         13.59371        11.93763        -0.69505
C         12.28234        12.70116        -0.70352
C         13.55640        14.82991        -0.40579
C         12.32457        14.15327        -0.46751
C         13.56256        16.26435        -0.32987
C         12.33180        16.98117        -0.35415
C         13.56157        19.10419        -0.40595
C         12.33863        18.41653        -0.38089
C         13.56900        20.57588        -0.73462
C         12.29572        21.29028        -0.34752
C         13.56475        23.37399         0.08971
C         12.28537        22.66995        -0.13948
C         13.56413        24.88416         0.13345
C         12.28640        25.58986        -0.05644
C         13.55960        27.71256        -0.27012
C         12.30106        26.99646        -0.15702
C         13.52264        29.14075        -0.37932
C         12.31585        29.84731        -0.33436
C         13.54505        32.01907        -0.13193
C         12.29726        31.30457        -0.31533
C         13.53931        33.47395        -0.11381
C         12.29439        34.16709        -0.29702
C         13.55264        36.39556        -0.45430
C         12.25530        35.63284        -0.70944
C         13.51470        37.83169        -0.06433
C         12.28811        38.46035         0.09050
C         15.98949         3.41315         0.28181
C         14.76624         4.11979         0.32135
C         16.01364         6.23620         0.00288
C         14.78436         5.54354         0.15252
C         16.02775         7.66652        -0.11494
C         14.79730         8.38430        -0.14833
C         16.03710        10.51236        -0.30447
C         14.79881         9.79962        -0.28997
C         16.04278        11.95617        -0.30607
C         14.83358        12.68698        -0.42322
C         16.03672        14.80739        -0.14571
C         14.81151        14.10031        -0.35848
C         16.03654        16.26197        -0.12806
C         14.80017        16.97520        -0.26335
C         16.04339        19.12271        -0.30737
C         14.80005        18.40305        -0.32538
C         16.05508        20.56653        -0.31392
C         14.83940        21.28957        -0.34967
C         16.05410        23.41959        -0.12403
C         14.83768        22.67856        -0.17046
C         16.04535        24.86166        -0.14428
C         14.82772        25.59668        -0.12747
C         16.07550        27.71371        -0.64095
C         14.78630        26.99920        -0.29062
C         16.05198        29.17482        -0.28997
C         14.79455        29.91418        -0.66673
C         15.97388        31.96603         0.28959
C         14.73800        31.31156        -0.10688
C         15.97329        33.51339         0.39514
C         14.74364        34.17774         0.00024
C         15.93994        36.34990         0.54326
C         14.81125        35.64152        -0.18541
C         15.97626        37.83154         0.23055
C         14.75178        38.51187         0.09838
C         18.46387         3.37601         0.09023
C         17.21431         4.08420         0.12017
C         18.47371         6.21086        -0.11331
C         17.23499         5.51126        -0.00057
C         18.49396         7.63892        -0.18821
C         17.25901         8.36918        -0.19184
C         18.51464        10.50668        -0.22972
C         17.26248         9.79868        -0.24562
C         18.52221        11.93273        -0.16046
C         17.27118        12.65958        -0.17215
C         18.50240        14.76220         0.27151
C         17.24280        14.07207        -0.04679
C         18.49956        16.29806         0.27052
C         17.23966        16.99312        -0.04116
C         18.52162        19.12768        -0.14292
C         17.26194        18.41237        -0.17539
C         18.52661        20.55492        -0.17015
C         17.28640        21.27908        -0.20163
C         18.53358        23.42050        -0.11171
C         17.28763        22.70436        -0.16265
C         18.53294        24.85092        -0.07008
C         17.30039        25.56856        -0.15753
C         18.51528        27.68434         0.02159
C         17.31704        26.98495        -0.18443
C         18.47658        29.14450         0.40648
C         17.22435        29.87066        -0.02348
C         18.49280        32.05289        -0.20887
C         17.24291        31.27843         0.09840
C         18.48686        33.51940         0.19017
C         17.26809        34.23330         0.28904
C         18.47208        36.36175         0.32152
C         17.25926        35.63668         0.34473
C         18.44664        37.80417         0.33211
C         17.20453        38.49888         0.26003
C         19.65207         4.04549        -0.03513
C         20.91378         6.18290        -0.23189
C         19.69254         5.47609        -0.12947
C         20.93192         7.56635        -0.28819
C         19.73520         8.32769        -0.25676
C         20.95371        10.50748        -0.26328
C         19.74251         9.77982        -0.25737
C         20.96312        11.88939        -0.19574
C         19.76243        12.63071        -0.11523
C         20.94868        14.81943         0.06522
C         19.78153        14.07053         0.05510
C         20.94717        16.23462         0.06559
C         19.77952        16.98365         0.05534
C         20.96762        19.15586        -0.14492
C         19.75852        18.42394        -0.09689
C         20.97026        20.53609        -0.16704
C         19.76078        21.26836        -0.14997
C         20.97612        23.45100        -0.04983
C         19.76145        22.71299        -0.11035
C         20.97947        24.82451         0.01879
C         19.76496        25.56507         0.01407
C         20.95544        27.76388         0.26663
C         19.74769        26.99591         0.12418
C         20.96663        29.13677         0.25483
C         19.76335        29.91077         0.17718
C         20.96190        32.08939         0.16710
C         19.76506        31.30274         0.12188
C         20.93825        33.46118         0.16731
C         19.71222        34.21912         0.20341
C         20.91584        36.41969         0.31191
C         19.72034        35.66089         0.28462
C         20.88183        37.81245         0.35228
C         19.66924        38.50503         0.35025
O         15.87981        32.67680         1.58548
O         14.54044        36.14371        -1.53389
O          3.23208        35.80574         2.34436
O          6.03723        11.26029        -1.61551
O         13.58609        24.08640         1.38030
O          8.10817         6.36250         2.62415
O          3.03382        16.86285        -1.93435
O         12.95582        12.30334        -1.96705
O         18.44123        15.52935         1.52115
O          3.39255         6.97526         1.98833
O          9.40153        31.47387        -1.89037
H         10.09658        31.06694        -2.44798
O          7.23736        38.35081         2.29356
H          7.20959        37.40813         2.55817
O          9.49514         7.88176        -1.56378
H          9.05464         8.63471        -2.03531
O          1.06334        29.61912        -2.08169
H          1.08067        30.59741        -2.15119
O          5.60091         6.47774         2.79640
H          6.35324         6.80284         3.33865
O         13.57469        20.62398        -2.21684
H         12.83221        20.06383        -2.52954
O          8.49733        10.40949        -2.05827
H          7.61774        10.79719        -2.31170
O          4.56449        16.87112         1.36286
H          5.36511        17.24317         1.80720
O          3.71928        14.46438        -2.25152
H          3.33821        15.23332        -2.74033
O          1.00050        16.41003         1.15790
H          0.13955        16.04084         1.44678
O          7.32739        18.04713        -2.15299
H          7.24042        18.87875        -2.66347
O         18.34655        29.10900         1.87871
H         19.12894        28.63120         2.22855
O          8.50767        24.44367         1.58288
H          8.54922        25.26962         2.10846
O          3.92162        10.30477         1.98943
H          3.39810        10.91885         2.54978
O         16.15896        27.66010        -2.11482
H         15.64850        28.43149        -2.46497
O         14.83329        30.07091        -2.14783
H         14.02763        30.56722        -2.40929
O          2.69563         5.62335        -1.31536
H          1.97534         5.11018        -1.74181
O          8.67099        23.85347        -2.01818
H          8.68650        23.02739        -2.54482
O         10.54425         5.84231         2.65679
H          9.76218         5.80833         3.25739
O          5.42857         5.69972        -0.76256
H          4.62962         5.54099        -1.32001
O          7.32132        17.36741         1.44182
H          7.63569        16.58047         1.93564
O         15.60250        36.23534         1.95986
H         16.34976        36.59913         2.47925
O          1.09313        23.29465        -2.45337
H          1.11988        22.33255        -2.64317
O          4.23703         9.46216        -1.47122
H          4.61105        10.12483        -2.09821
O          0.89709         6.06634         1.89711
H          1.67211         6.48203         2.35222
O          6.33784        37.99453        -1.23573
H          5.61683        37.54142        -1.72015
O          3.46270        12.66988         1.79093
H          3.35562        13.64384         1.72826
O         18.49079        32.11738        -1.69774
H         19.32115        32.56846        -1.96435
O          9.04676        31.79454         1.72940
H          8.35042        32.21146         2.27856
O         12.07702        35.58788        -2.16189
H         12.98419        35.60425        -2.54862
H          1.36146         2.25584         0.41039
H         -0.63253         3.38383        -0.59152
H         -0.87512         5.82595        -0.54390
H         -0.96718         7.81992        -0.31615
H         -0.98588        10.24549        -0.58538
H         -1.06015        12.16426        -0.50569
H         -1.07616        14.60884        -0.62513
H         -1.04637        16.60804        -1.12380
H         -0.95968        19.04415        -1.06291
H         -0.99256        20.88290         0.00544
H         -1.01122        23.30313        -0.32164
H         -0.95984        25.15942        -1.09030
H         -0.95018        27.61384        -0.94985
H         -0.97323        29.35273         0.08597
H         -0.92487        31.68709         0.76735
H         -0.96049        33.65753         0.54059
H         -0.95595        36.09081         0.82657
H          0.29276        38.23432         1.18982
H          3.76630         2.40120         1.14826
H          2.40227        39.49219         1.09878
H          6.22865         2.46556         1.39376
H          4.78698        39.52876         0.42765
H          8.60753         2.49539         1.14039
H          7.40862        39.49745         0.58970
H         11.01849         2.42240         0.80338
H          9.86171        39.47000         0.62795
H         13.51023         2.36474         0.64613
H         12.25849        39.52948         0.34912
H         15.98441         2.31858         0.39517
H         14.74608        39.61260         0.13489
H         18.45123         2.27929         0.17298
H         17.22293        39.59427         0.15081
H         20.60131         3.49003        -0.05471
H         21.85951         5.62215        -0.25439
H         21.90400         8.07296        -0.35507
H         21.91580         9.98031        -0.30392
H         21.93104        12.40736        -0.18171
H         21.92358        14.32068        -0.01960
H         21.92212        16.73304        -0.01878
H         21.93049        18.62917        -0.13727
H         21.93640        21.05601        -0.18528
H         21.94048        22.92700        -0.04656
H         21.94383        25.34658         0.07126
H         21.91906        27.24074         0.32876
H         21.93910        29.64836         0.27268
H         21.93604        31.58683         0.24683
H         21.89679        33.99549         0.20761
H         21.89231        35.91776         0.30019
H         21.82649        38.37397         0.37221
H         19.66181        39.60426         0.36015
