         252
 CSIRO Nanostructure Databank - Neutral Graphene Oxide Data Set
C         30.69791        31.91641         2.51510
C         30.60081        33.12658         2.27842
C         30.48050        36.26200         1.44339
C         30.60405        37.49615         1.36104
C         30.31487        40.38860        -0.12658
C         30.20485        41.62558        -0.40583
C         32.93129        29.05136         1.89613
C         31.86552        29.60102         2.30769
C         32.95685        31.67703         1.77470
C         31.77998        31.00195         2.26275
C         32.98187        33.18677         1.80564
C         31.65461        33.91518         1.61559
C         32.87773        36.18026         1.07744
C         31.60357        35.34099         1.21771
C         32.77464        37.52218         0.38494
C         31.53832        38.19654         0.50130
C         32.89781        40.08439        -1.35809
C         31.11791        39.28714        -0.31189
C         32.82419        41.46777        -1.63806
C         30.88306        42.57292        -1.13713
C         32.56667        44.26253        -1.23012
C         31.43287        43.85408        -0.87523
C         35.73535        27.54331         1.66799
C         35.19159        28.64088         0.79683
C         34.13938        29.52885         1.40373
C         35.36300        31.67404         0.96623
C         34.10374        30.95311         1.35096
C         35.45630        33.17788         1.08963
C         34.24287        33.96485         1.53329
C         35.47394        36.21538         0.86798
C         34.19017        35.47304         1.25847
C         35.22604        37.44990        -0.00630
C         34.00721        38.09917        -0.16984
C         35.20869        40.24742        -0.79595
C         34.02367        39.45583        -0.78438
C         35.14201        41.62255        -1.04786
C         33.93175        42.30606        -1.35765
C         35.07128        44.52893        -1.12863
C         33.90903        43.78591        -1.29870
C         35.30176        45.92658        -1.01146
C         37.96968        27.41906         0.71483
C         36.75655        26.93415         1.30626
C         37.81563        28.75316         0.22375
C         36.46214        29.42457         0.26952
C         37.59337        31.73946        -0.41124
C         36.40144        30.92892         0.15152
C         37.73666        33.17385         0.09121
C         36.57541        33.91132         0.43329
C         37.80714        35.96904         0.05243
C         36.59801        35.31655         0.36334
C         37.79671        37.40409        -0.30495
C         36.49350        38.12280        -0.42272
C         37.83277        40.31761        -0.79978
C         36.52371        39.62651        -0.47897
C         37.69720        41.70976        -1.41429
C         36.38928        42.38250        -1.29590
C         37.70677        44.55268        -0.73528
C         36.39082        43.83074        -0.94029
C         37.72807        46.06080        -0.77347
C         36.39725        46.52572        -0.89618
C         40.53541        24.77134         0.73771
C         39.47741        25.38978         1.05382
C         40.35973        27.43906         0.19767
C         39.19726        26.73995         0.63720
C         40.24981        28.80556        -0.14273
C         38.97494        29.45783        -0.17028
C         40.21793        31.66377        -0.36872
C         38.91431        30.92260        -0.48009
C         40.21493        33.09088         0.06193
C         38.95708        33.85745        -0.06421
C         40.31584        35.97713         0.01601
C         39.02704        35.26539        -0.00406
C         40.34540        37.38921        -0.06129
C         39.05685        38.20835        -0.02198
C         40.45295        40.16418        -0.69471
C         39.13016        39.44454        -0.94339
C         40.76092        41.25214        -1.43791
C         38.90472        42.58425        -1.51539
C         40.24512        44.55668        -0.43287
C         39.01190        43.88269        -1.09307
C         40.17109        46.06872        -0.26420
C         38.91114        46.75590        -0.54555
C         40.04708        48.74505         0.14437
C         39.07080        48.16530        -0.38238
C         42.95875        24.77392        -0.24251
C         41.79193        25.24112         0.35611
C         42.65837        27.39714        -0.79764
C         41.75575        26.81534         0.29995
C         42.70347        28.86776        -0.72448
C         41.49475        29.55626        -0.38831
C         42.72474        31.76655        -0.57797
C         41.49791        30.93511        -0.29385
C         42.80271        32.96653         0.37651
C         41.50890        33.79497         0.34439
C         42.77185        35.96480         0.26488
C         41.54322        35.27340         0.17233
C         42.77758        37.37794         0.28793
C         41.56697        38.07482         0.10796
C         42.94205        40.20448        -0.10468
C         41.56462        39.59276         0.18469
C         43.02920        41.55543        -0.59450
C         41.96084        42.00863        -1.30334
C         42.71607        44.59129        -0.03898
C         41.68255        44.19032        -0.82461
C         42.49110        45.85802         0.77529
C         41.28276        46.70515         0.27836
C         42.44168        48.70980         1.10027
C         41.29647        48.17119         0.50156
C         44.00813        25.36951        -0.66230
C         44.96393        27.52580        -1.94974
C         43.86022        26.65199        -1.36350
C         45.11869        28.83587        -1.12409
C         43.95842        29.54656        -0.81773
C         45.20231        31.62840        -0.28460
C         44.01814        30.98007        -0.53176
C         45.25099        33.05697         0.02368
C         44.07708        33.75051         0.13423
C         45.30136        35.86664         0.71213
C         44.09185        35.24625         0.04119
C         45.28232        37.35136         0.88278
C         43.98365        38.16267         0.81094
C         45.36777        40.27224         0.24108
C         44.11810        39.54785         0.20924
C         45.41809        41.67336         0.10801
C         44.24669        42.43495        -0.49324
C         45.25835        44.57853         0.20518
C         43.97447        43.75442         0.29894
C         45.13122        46.09605         0.43622
C         43.83066        46.69324         0.77227
C         43.50553        47.96321         1.07678
C         47.42862        27.58304        -1.94697
C         46.35213        26.97734        -2.01957
C         47.75821        28.72780        -1.02577
C         46.41266        29.60910        -1.21713
C         47.78866        31.49995        -0.02513
C         46.46767        30.83928        -0.31367
C         47.84641        33.03685         0.05446
C         46.53779        33.64226         0.61458
C         47.79679        35.81909         0.91063
C         46.61141        35.16327         0.60563
C         47.84326        37.26628         0.94326
C         46.59727        38.00828         0.60047
C         47.92236        40.20515         0.55004
C         46.62409        39.48925         0.32940
C         47.87480        41.73582         0.62856
C         46.58349        42.43046         0.41659
C         47.72331        44.56976         0.82496
C         46.54177        43.85214         0.47711
C         47.48496        45.97955         0.85802
C         46.41420        46.61301         0.92204
C         50.35711        29.04370        -1.43571
C         48.95577        29.63609        -1.36083
C         50.32422        31.67656        -0.51373
C         49.13050        30.75519        -0.26334
C         50.36392        32.93547         0.28791
C         49.05801        33.45650         0.91668
C         50.32943        35.83889         1.03157
C         49.05791        35.03749         1.34306
C         50.30544        37.28176         1.55553
C         49.02370        38.02013         1.15401
C         50.20827        40.19418         1.61989
C         49.03217        39.43352         1.13135
C         50.19191        41.76064         1.68322
C         48.98473        42.48784         1.23449
C         50.19378        44.48319         1.49179
C         48.92411        43.89602         1.18335
C         51.32402        29.81432        -1.59601
C         52.55626        32.10659        -1.12880
C         51.47619        31.16493        -1.12200
C         52.56662        33.29387        -0.74995
C         51.61013        33.81449         0.23803
C         52.65566        36.08795         0.64205
C         51.50852        35.23241         0.61651
C         52.63089        37.33343         0.84874
C         51.55794        38.13881         1.21823
C         52.56762        40.42343         1.64795
C         51.53154        39.50077         1.50552
C         52.62396        41.67973         1.82490
C         51.51729        42.52063         1.76276
C         51.28487        43.90894         1.72818
O         51.41107        32.89087         1.32990
O         33.81134        33.68120         2.89509
O         35.95494        30.07337        -0.95062
O         40.65859        33.32608         1.45920
O         49.12460        35.05891         2.74478
O         37.15240        37.55828        -1.61861
O         33.56545        36.19670         2.37273
O         48.32794        41.02013        -0.60757
O         35.98955        32.29423         2.13809
O         39.85420        41.90167        -2.28614
O         45.19780        36.47237         2.04561
O         41.89099        43.28192        -1.86566
O         49.97464        40.91503         2.86636
O         46.66493        38.51351        -0.78511
O         42.59563        26.76524        -2.11173
O         47.05949        30.78952         1.01740
O         45.24430        45.52849        -0.89656
O         36.97051        44.01558         0.42113
O         31.40173        34.29777         0.23587
O         37.28174        40.33203         0.54872
O         39.62223        31.36354        -1.68658
O         31.61534        41.94532        -2.22106
O         31.74157        39.31000        -1.59822
O         36.88942        41.93463        -2.62618
O         48.08095        33.54444        -1.27149
H         47.41198        33.17657        -1.88662
O         42.22743        45.51943         2.15151
H         42.05898        46.34615         2.65226
O         41.29601        39.97082         1.55850
H         42.00214        39.55442         2.11079
O         42.34609        27.28987         1.52373
H         41.80165        26.98709         2.28070
O         47.79419        28.21978         0.27750
H         48.47471        28.69861         0.81617
O         36.03282        36.77194         2.09348
H         35.27171        36.97188         2.68972
O         46.37911        33.29468         2.00643
H         47.23285        32.91404         2.34277
O         38.95945        38.67184         1.33819
H         38.83074        37.90192         1.92960
O         48.75569        30.30570        -2.59027
H         48.59366        29.64337        -3.29375
O         43.81184        43.33696         1.66870
H         43.18819        43.94675         2.13127
O         46.34439        30.14650        -2.56314
H         45.95822        29.45402        -3.14934
O         44.56496        27.95472        -3.25803
H         43.66009        27.59471        -3.42665
O         44.65003        42.83105        -1.81892
H         44.95700        42.04109        -2.30982
O         40.15326        44.00326         0.91702
H         39.23498        44.11921         1.24767
O         39.19355        38.97370        -2.29901
H         39.20995        39.74956        -2.89990
O         50.37713        37.25850         2.98644
H         49.89379        36.41637         3.26743
O         49.47226        30.10383         0.98101
H         49.42175        30.79082         1.69103
O         34.58984        28.00285        -0.32888
H         34.66249        28.60853        -1.09948
O         48.94506        32.71075         2.14713
H         49.20171        33.37499         2.85831
O         44.36517        35.50769        -1.38679
H         43.74707        34.96364        -1.92161
O         37.22497        32.02218        -1.78623
H         37.04552        31.16459        -2.23211
O         42.98100        32.44034         1.70704
H         42.15024        32.59251         2.21433
O         43.61665        38.45126         2.20331
H         43.85512        37.64895         2.72855
O         42.56283        32.32743        -1.91456
H         42.30414        31.60501        -2.52559
