         210
 CSIRO Nanostructure Databank - Neutral Graphene Oxide Data Set
C         30.41466        31.78165        -0.86738
C         30.53737        32.91692        -0.34840
C         30.93770        35.69273         1.19078
C         31.04527        36.79956         1.76882
C         31.42454        39.65559         3.07965
C         31.39437        40.89274         3.30853
C         32.79757        29.04164        -1.55054
C         31.66171        29.61845        -1.61329
C         32.74741        31.76349        -1.40627
C         31.46063        30.97227        -1.37586
C         32.79330        33.14902        -0.90024
C         31.68103        33.77742        -0.33484
C         32.87747        35.95532        -0.10524
C         31.80474        35.10067         0.23573
C         32.91446        37.30025         0.42796
C         32.05711        37.75867         1.49630
C         33.34221        39.87461         1.67783
C         32.25063        39.04740         2.05838
C         33.65916        41.19100         2.37802
C         32.33284        41.88611         2.99481
C         33.33145        43.98029         2.40086
C         32.41769        43.24629         2.91685
C         35.38698        27.42037        -0.67162
C         35.23206        28.81710        -0.78743
C         34.05717        29.50825        -1.18563
C         35.21134        31.66721        -0.52080
C         34.09806        30.97838        -1.29880
C         35.25661        33.16229        -0.76443
C         34.06737        33.85328        -0.89839
C         35.35135        35.98639        -0.87787
C         33.97689        35.36018        -1.05435
C         35.45989        37.37060        -0.98833
C         33.78813        38.29730        -0.07937
C         35.42244        40.16985         0.25427
C         34.19230        39.44520         0.61947
C         35.47481        41.56777         0.67464
C         34.52438        42.11717         1.52051
C         35.48137        44.41442         1.15515
C         34.44963        43.57761         1.67512
C         35.62440        45.82235         1.24981
C         37.75684        27.33533        -0.47316
C         36.45525        26.77551        -0.54521
C         37.71591        28.76723        -0.50519
C         36.50809        29.49669        -0.63480
C         37.73666        31.65572        -0.47074
C         36.53966        30.94767        -0.63598
C         37.73281        33.11010        -0.42569
C         36.53458        33.83198        -0.61337
C         37.78368        35.98119        -0.50784
C         36.54859        35.26527        -0.64766
C         37.80925        37.40963        -0.51632
C         36.58842        38.12706        -0.63954
C         37.76487        40.28280        -0.84097
C         36.51561        39.55512        -0.36119
C         37.74985        41.78269        -0.53886
C         36.57221        42.41669         0.14451
C         37.84078        44.56494         0.37498
C         36.66559        43.82721         0.61017
C         37.90092        45.98845         0.51754
C         36.64255        46.48955         0.93991
C         40.21819        24.54244        -0.20011
C         39.17216        25.23129        -0.34020
C         40.24064        27.31523        -0.14899
C         38.97672        26.61725        -0.37522
C         40.20614        28.70720        -0.08404
C         39.03904        29.48587        -0.64731
C         40.15024        31.66481         0.00142
C         38.99095        30.96141        -0.29558
C         40.18382        33.10460        -0.00448
C         38.97439        33.81585        -0.24368
C         40.22026        35.94993        -0.13772
C         38.99114        35.24626        -0.29064
C         40.23151        37.36985        -0.28210
C         39.05338        38.12367        -0.42295
C         40.25316        40.29030        -0.40240
C         39.06461        39.56999        -0.48942
C         40.31265        41.72871        -0.38530
C         39.06932        42.55956        -0.67142
C         40.34954        44.59665        -0.06092
C         39.12591        43.78052         0.27707
C         40.34144        46.01166        -0.06952
C         39.09726        46.70637         0.23100
C         40.30911        48.76705        -0.18220
C         39.29464        48.09457         0.14240
C         42.78895        24.55514         0.11902
C         41.49275        25.11830         0.01042
C         42.71324        27.31212         0.14671
C         41.48891        26.57656         0.04350
C         42.70337        28.75160         0.28390
C         41.39862        29.43230         0.38345
C         42.67144        31.65879         0.47945
C         41.38215        30.94550         0.41403
C         42.65307        33.10909         0.50031
C         41.42088        33.80932         0.20500
C         42.65987        35.94644         0.36370
C         41.43582        35.22890         0.12292
C         42.70201        37.35786         0.17692
C         41.52649        38.05190        -0.36431
C         42.78164        40.27057         0.00128
C         41.54316        39.56755        -0.38471
C         42.77971        41.69131        -0.07888
C         41.51735        42.40241        -0.21821
C         42.76599        44.56240        -0.35753
C         41.55060        43.86875        -0.22368
C         42.76738        45.97227        -0.54517
C         41.55283        46.72600        -0.38900
C         42.82042        48.71131        -0.85995
C         41.56044        48.18354        -0.49872
C         43.83319        25.24540         0.19716
C         45.19826        27.37984         0.11342
C         43.99706        26.64932         0.18253
C         45.16648        28.86924         0.04660
C         43.86912        29.51285         0.35495
C         45.11656        31.56351         1.14342
C         43.85776        30.94199         0.55070
C         45.04816        33.09287         1.30289
C         43.82548        33.81120         0.82640
C         44.97800        35.99329         1.18520
C         43.84372        35.23883         0.75490
C         44.79757        37.37542         1.29092
C         43.81908        38.11066         0.57939
C         45.21146        40.26468         0.30473
C         43.94975        39.55957         0.34977
C         45.22571        41.63472        -0.10515
C         44.00929        42.36855        -0.12456
C         45.25059        44.44001        -0.82615
C         44.07431        43.87121        -0.06995
C         45.19397        45.81770        -1.16518
C         44.02055        46.60146        -0.91933
C         43.83206        47.98243        -1.05954
C         47.58401        27.57276         0.07834
C         46.51186        26.90599         0.03883
C         47.76991        28.94992         0.21602
C         46.47865        29.68819         0.10538
C         47.63020        31.81820         0.79936
C         46.44983        31.09217         0.58322
C         47.64272        33.18790         1.22740
C         46.33960        33.86238         1.50371
C         47.60740        36.14342         1.55547
C         46.28274        35.37687         1.56685
C         47.71737        37.56560         1.10476
C         46.64900        38.43885         1.22520
C         47.68787        40.19431        -0.06358
C         46.50222        39.64380         0.49016
C         47.66195        41.52560        -0.60092
C         46.45617        42.27132        -0.53008
C         47.62554        44.19234        -1.55869
C         46.42512        43.64418        -0.97891
C         47.43692        45.54770        -1.92646
C         46.41970        46.25394        -1.74055
C         50.26757        29.20044         0.40883
C         48.96096        29.66476         0.38789
C         50.25451        31.89580         0.76592
C         48.93431        31.16301         0.45619
C         50.16126        33.27991         1.28515
C         48.87429        33.95668         1.31216
C         50.08253        36.20598         1.72465
C         48.86246        35.35583         1.45325
C         50.14709        37.45170         0.81926
C         48.92541        38.12446         0.56661
C         50.12508        40.03611        -0.47331
C         48.90897        39.45056         0.01000
C         50.11214        41.34635        -1.08451
C         48.87581        42.08923        -1.12826
C         50.07363        43.83721        -2.14046
C         48.81289        43.42752        -1.64721
C         51.39305        29.74397         0.64598
C         52.58964        31.91680         1.39904
C         51.54165        31.09083         0.93552
C         52.50198        33.13987         1.64126
C         51.35265        33.99439         1.61549
C         52.43656        36.25803         1.45667
C         51.37619        35.39167         1.70221
C         52.54735        37.38940         0.90512
C         51.36005        38.06721         0.43414
C         52.43826        40.00535        -0.82171
C         51.34422        39.29463        -0.28539
C         52.48648        41.11545        -1.40682
C         51.34667        41.93341        -1.59126
C         51.16908        43.22769        -2.14029
O         33.64991        31.55003        -2.53701
O         36.69324        42.39601        -1.35545
O         41.15375        30.15369         1.65136
O         41.75306        38.77158        -1.61889
O         45.77787        29.44598        -1.16885
O         45.51375        33.41195         2.66242
O         34.30997        38.08567        -1.36581
O         46.86958        35.89612         2.80983
O         49.69536        31.80844        -0.60301
O         45.63441        38.11161         2.12577
O         33.52476        35.61501        -2.40482
H         33.54790        36.58957        -2.53967
O         45.11779        30.96578         2.48062
H         45.39156        31.68630         3.10349
O         39.32674        43.21031         1.60907
H         39.47087        43.94608         2.24098
O         39.17024        43.01658        -2.02926
H         38.25374        43.13557        -2.36708
O         49.94828        36.72427         3.08712
H         49.02721        36.57665         3.39381
O         34.80538        31.49030         0.88156
H         35.53393        31.81230         1.45385
O         37.69749        40.17568        -2.29443
H         37.01232        40.81668        -2.59115
O         44.33136        44.18993         1.35294
H         45.18868        43.77946         1.59680
O         39.30747        29.50844        -2.10975
H         39.18735        28.59659        -2.45282
O         34.47043        40.87887         3.53003
H         33.97324        40.24493         4.08982
