         268
 CSIRO Nanostructure Databank - Neutral Graphene Oxide Data Set
C        -11.19314         0.53604         0.30205
C        -10.01104         1.37257         0.66799
C         -8.69730         0.66247         0.81067
C         -7.36594         1.42161         0.91726
C         -6.02572         0.56915         0.73872
C         -4.71946         1.30461         0.57659
C         -3.46451         0.51451         0.14405
C         -2.21144         1.31778        -0.10851
C         -1.02550         0.60839        -0.74760
C          0.05368         1.46327        -1.38757
C          1.31127         0.79811        -1.85680
C          2.63503         1.52890        -1.63705
C          3.95830         0.80160        -1.81545
C          5.19334         1.54716        -1.37770
C          6.13334         0.87793        -0.39790
C          7.26057         1.70258         0.25593
C          8.43438         0.86249         0.78497
C          9.66790         1.59698         1.19418
C         10.89053         0.79292         1.45260
C        -10.11728         2.86120         0.54346
C         -9.15319         3.75707         0.71840
C         -7.19583         2.48302        -0.17656
C         -6.08931         3.46874         0.13055
C         -4.75963         2.83630         0.48387
C         -3.46660         3.66541         0.37450
C         -2.24076         2.82067        -0.02042
C         -1.02874         3.63213        -0.41361
C          0.09923         2.96505        -1.13183
C          1.35793         3.76690        -1.30848
C          2.65614         2.99987        -1.29875
C          3.93512         3.81264        -1.29227
C          5.23937         3.05551        -1.35467
C          6.53065         3.72993        -1.01579
C          7.81034         2.89093        -0.69241
C          8.83713         3.70239         0.13784
C          9.72661         3.06364         0.94141
C         -8.39601         4.80534         1.00886
C         -7.55357         5.61222         0.01790
C         -6.22319         4.89698        -0.31682
C         -4.96291         5.67148        -0.45522
C         -3.63831         4.94492        -0.46634
C         -2.41540         5.76727        -0.70594
C         -1.09220         5.12020        -0.46893
C          0.11483         5.96109        -0.75115
C          1.39885         5.23192        -0.91264
C          2.62046         5.76705        -0.24942
C          3.92698         5.18802        -0.68796
C          5.16923         5.74739        -0.03152
C          6.46218         5.05789        -0.30713
C          7.72337         5.84535        -0.30532
C          8.87132         5.16116        -0.07435
C         -7.28253         7.00481         0.56484
C         -6.13617         7.73913         0.40242
C         -4.94669         7.14382        -0.23171
C         -3.83206         7.85090        -0.59368
C         -2.47149         7.27917        -0.76678
C         -1.22726         8.09871        -0.36152
C          0.01387         7.28782        -0.04031
C          1.29274         7.92423         0.41025
C          2.58535         7.14220         0.32712
C          3.86843         7.93125         0.39305
C          5.18219         7.21817         0.33445
C          6.51111         7.99434         0.23280
C          7.54600         7.30687        -0.68686
C         -6.06121         9.00480         1.14590
C         -4.98490         9.80054         1.38394
C         -3.71748         9.68257         0.67472
C         -2.44892         9.82932         1.11486
C         -1.25527         9.58218         0.19083
C          0.04767        10.04098         0.95849
C          1.34720         9.40197         0.50152
C          2.51363        10.06068         0.31125
C          3.74980         9.32704        -0.19374
C          5.06444        10.06873        -0.12830
C          6.26212         9.46172        -0.07847
C        -11.15611        -0.80744         0.23725
C         -9.87092        -1.59636         0.12780
C         -8.64147        -0.81770         0.59507
C         -7.36810        -1.52632         0.29745
C         -6.10128        -0.77275         0.04195
C         -4.89516        -1.50319        -0.49010
C         -3.51268        -0.95087        -0.23617
C         -2.27698        -1.79143        -0.69886
C         -1.06768        -0.87164        -1.05494
C          0.02218        -1.46576        -1.92658
C          1.34590        -0.70608        -1.97389
C          2.63627        -1.44372        -1.91882
C          3.92248        -0.70915        -1.64338
C          4.99132        -1.39480        -0.86997
C          6.05855        -0.59493        -0.18816
C          7.31981        -1.36523         0.10055
C          8.55669        -0.60543         0.44983
C          9.72396        -1.41933         1.03680
C         10.85535        -0.54763         1.54067
C         -9.81024        -2.97984         0.75426
C         -8.63038        -3.63987         0.72308
C         -7.48368        -2.99412         0.00465
C         -6.21778        -3.72498        -0.31126
C         -5.02171        -2.96996        -0.85810
C         -3.85916        -3.70163        -1.48213
C         -2.55693        -2.85885        -1.79085
C         -1.28194        -3.74426        -2.01354
C          0.02039        -2.95353        -2.16203
C          1.34098        -3.70557        -2.12101
C          2.60406        -2.93804        -1.71235
C          3.60752        -3.53548        -0.77014
C          4.67208        -2.67188        -0.15035
C          5.75450        -3.27802         0.67294
C          7.19093        -2.83795         0.47091
C          8.08373        -3.24285         1.63929
C          9.19359        -2.48531         1.98129
C         -8.39417        -4.99740         1.34781
C         -7.28518        -5.78891         0.67251
C         -5.98436        -5.06338         0.35914
C         -5.18807        -5.96152        -1.15153
C         -3.86853        -5.23393        -1.50237
C         -2.58686        -6.01050        -1.68115
C         -1.27040        -5.26217        -1.97991
C          0.06756        -6.09471        -2.10890
C          1.36120        -5.20095        -1.92825
C          2.43578        -5.78329        -1.00100
C          3.39251        -4.91764        -0.23869
C          4.47751        -5.46239         0.70336
C          5.85744        -4.77781         0.66776
C          6.74210        -5.33775         1.77355
C          7.78656        -4.49168         2.24993
C         -7.40016        -7.11822         0.53865
C         -6.25163        -7.97543         0.14198
C         -5.12423        -7.40145        -0.68901
C         -3.77616        -8.08344        -0.59277
C         -2.52624        -7.43546        -1.17304
C         -1.18677        -8.04107        -0.82656
C          0.11183        -7.41134        -1.28851
C          1.40521        -8.03857        -0.84352
C          2.70939        -7.28281        -1.15124
C          3.88929        -7.80770        -0.32556
C          4.70955        -6.95385         0.57191
C          5.46927        -7.55921         1.75503
C          6.60076        -6.64877         2.18462
C         -5.96374        -9.04467         1.12765
C         -4.73547        -9.55507         1.31519
C         -3.60073        -9.19644         0.44214
C         -2.25094        -9.50854         0.90296
C         -1.10120        -9.02586         0.29452
C          0.15383        -9.43899         0.80507
C          1.40347        -9.04902         0.25986
C          2.58809        -9.62640         0.66883
C          3.87227        -9.31210        -0.06750
C          5.11698        -9.76792         0.66334
C          5.87341        -8.97953         1.43706
O         -5.60364         3.41504         1.49860
O          6.59277        -4.92769        -0.59537
O          4.57388         7.63319         1.61971
O         -5.75575         5.23263        -1.64389
O          5.19231        -7.31785        -0.75031
O          4.70754        -2.54385         1.31763
O         -3.25176        -0.54779         1.13163
O         -5.16062         0.75370         1.86246
O          4.99223         1.13129        -2.76833
O          5.43664         0.27843         0.77797
O          0.35396         7.29678         1.36831
O         -3.85077        -9.46496        -0.98492
O         -4.94696        -3.19441        -2.30482
O         -7.84817        -1.38878         1.68119
O          6.11158         3.64191        -2.38347
O          2.08284        -5.27672         0.34530
O         -1.44753        -4.52471        -3.22909
O          2.07028        -1.05605        -3.19702
O          0.44072         3.60772        -2.40485
O          8.30117        -0.99335        -0.92533
O         -3.06232         5.00025        -1.79416
O          3.79144        -3.59344        -2.21852
O         -5.71634        -0.66047        -1.36283
O         -5.03162        -5.09420         1.24140
O          7.52087        -3.72684        -0.67127
O         -0.44206        -0.37429         0.17124
O         -0.24539        -1.99687        -3.24053
O         -1.90134        -8.40675        -2.04975
O         -6.13538        -8.26306        -1.28165
O          5.78493         4.90876         0.98994
O         -3.49611        -5.80150        -2.79741
O          0.78017        -8.47831        -2.06685
O         -0.74715         4.44365         0.78507
O          1.69275        -4.61388        -3.20418
O         -1.82388         1.99384         1.12363
O          8.63452         1.15529         2.20017
O         -3.88078         9.24656        -0.67227
O         -7.69548         2.37996        -1.28266
O         -9.52962         0.91784         1.99672
O         -7.29356        -3.59937        -1.30314
O         -1.61542         7.93853        -1.74752
O          2.54763         5.96333         1.18572
O          0.82078         6.03993        -2.00346
O          0.31076         1.25273        -2.80844
O          2.64054         2.00825        -0.22627
O          8.38707         2.33124        -1.77181
O          5.03831        -1.39592        -2.30498
O          3.95157         4.99767        -2.13307
O          6.65454         2.38607         1.33101
H          7.22583         2.26790         2.13124
O         -8.01219        -4.82210         2.72130
H         -7.09336        -4.47993         2.74861
O         -3.19686         4.18440         1.68709
H         -2.83838         3.45221         2.23714
O         -7.33365         2.01840         2.20142
H         -7.98173         1.54805         2.77355
O          4.00674        -5.17051         2.04367
H          3.02273        -5.15424         2.02080
O         -1.34380        10.43799        -0.95081
H         -2.09444        10.11861        -1.50182
O          3.82556        -9.99553        -1.34142
H          3.73340        -9.32227        -2.05675
O          7.12699         7.97037         1.53820
H          6.40140         8.04823         2.19947
O         -1.86909        -2.57214         0.43408
H         -1.80351        -1.95159         1.19982
O         -0.07988         9.78688         2.35984
H          0.06753         8.82320         2.50632
O          4.56034        -7.64085         2.89030
H          4.31984        -6.71220         3.12365
O          0.09804        -6.54488        -3.45938
H         -0.05219        -5.76625        -4.04207
O         -6.09220        -5.79652        -2.15652
H         -5.95956        -4.92243        -2.59799
O         -8.30039         5.73867        -1.20037
H         -7.64885         5.83607        -1.93197
O         10.33201        -2.19566        -0.02716
H          9.71934        -2.16750        -0.80379
O         -2.79212        -2.13802        -2.98716
H         -2.78617        -2.76795        -3.74043
O          3.05178        -7.51558        -2.52430
H          2.20912        -7.68434        -3.01754
O         -9.65955        -1.74816        -1.30765
H        -10.37133        -2.31349        -1.67325
O          3.49456         9.04955        -1.60764
H          3.51439         9.89642        -2.10063
O          7.03684         7.35620        -2.02006
H          7.59623         6.80435        -2.60447
H         11.77391        -1.09106         1.80906
H         11.81235         1.33677         1.70942
H         10.50731         3.63680         1.46765
H          9.84095         5.68157        -0.01129
H          8.52764         7.85347        -0.61638
H          7.16765        10.08898        -0.11497
H          5.02422        11.16146        -0.27074
H          2.54370        11.15916         0.39035
H          0.10926        11.14890         0.82841
H         -2.24527        10.14979         2.14730
H         -5.08211        10.60220         2.13233
H         -6.98111         9.24313         1.70477
H         -8.11750         7.47464         1.10910
H         -8.33056         5.10781         2.07088
H        -11.13183         3.24167         0.32002
H        -12.16256         1.05396         0.22840
H        -12.09010        -1.35920         0.04436
H        -10.69538        -3.41661         1.24088
H         -9.34128        -5.59356         1.34351
H         -8.33585        -7.62710         0.82381
H         -6.78271        -9.32894         1.80507
H         -4.55022       -10.27981         2.12178
H         -2.14665       -10.16387         1.78105
H          0.15516       -10.17644         1.62179
H          2.57150       -10.39160         1.45931
H          5.42205       -10.80884         0.47909
H          6.77927        -9.37851         1.91799
H          7.28781        -7.03748         2.95369
H          8.44109        -4.85754         3.05562
H          9.84510        -2.84177         2.79481
