         276
 CSIRO Nanostructure Databank - Neutral Graphene Oxide Data Set
C        -11.26696         0.63699        -0.07041
C        -10.02919         1.42819        -0.21895
C         -8.73873         0.67425        -0.05798
C         -7.62198         1.43063         0.61503
C         -6.41313         0.66379         1.19709
C         -5.11039         1.47403         1.14105
C         -3.79557         0.74930         0.81747
C         -2.62024         1.50805         1.42327
C         -1.32107         0.80307         1.58599
C         -0.05771         1.59968         1.20246
C          1.19189         0.79360         1.55788
C          2.45813         1.54820         1.87093
C          3.81035         0.78910         1.94125
C          5.04690         1.59126         1.57260
C          6.34962         0.78260         1.62063
C          7.60472         1.53307         1.23237
C          8.86326         0.80744         1.02265
C         10.08344         1.57428         0.67809
C         11.20620         0.86066         0.08790
C        -10.01969         2.89705        -0.20523
C         -8.75856         3.53982        -0.36989
C         -7.60446         2.91208         0.34054
C         -6.30014         3.61553         0.32192
C         -5.09861         2.95836         0.89930
C         -3.79097         3.63064         0.49535
C         -2.60013         2.99797         1.18199
C         -1.34357         3.78095         1.45654
C         -0.04571         3.02667         1.86101
C          1.27042         3.73275         1.50350
C          2.43514         3.02980         1.63674
C          3.75527         3.78769         1.71991
C          5.03313         2.95040         1.57100
C          6.32152         3.70448         1.56955
C          7.64982         2.96730         1.40429
C          8.86509         3.70670         0.96887
C         10.05985         2.94525         0.68976
C         -8.54494         4.69447        -1.09931
C         -7.14319         4.99761        -1.55853
C         -6.09987         4.67066        -0.51316
C         -4.68527         5.16998        -0.68216
C         -3.84933         5.13246         0.59253
C         -2.57746         5.89435         0.65755
C         -1.27450         5.15569         0.85420
C          0.03014         5.87363         0.75618
C          1.32652         5.26312         1.33129
C          2.48696         5.64999         0.34796
C          3.85081         4.93139         0.67141
C          5.02270         5.86729         1.02145
C          6.32556         5.17405         1.23015
C          7.55365         5.77085         0.61410
C          8.81195         5.05091         0.70597
C         -6.92695         6.34490        -2.17656
C         -5.69474         6.89142        -2.30437
C         -4.42206         6.33111        -1.66167
C         -3.73268         7.56130        -0.95707
C         -2.53150         7.21470        -0.06458
C         -1.24351         7.97672        -0.12092
C          0.03111         7.35331         0.42316
C          1.34592         7.94756         0.03454
C          2.61050         7.16475         0.19303
C          3.77390         7.82943         0.02974
C          5.11106         7.27359         0.42639
C          6.11421         7.33432        -0.73312
C          7.45495         6.81291        -0.26104
C         -5.52242         8.09754        -3.10208
C         -4.40176         8.85260        -3.02425
C         -3.37363         8.58441        -2.03032
C         -2.22085         9.29089        -2.05391
C         -1.12921         9.21259        -1.02342
C          0.22865         9.45591        -1.61498
C          1.39888         9.06062        -0.95860
C          2.63113         9.64164        -1.23446
C          3.83603         9.28420        -0.41364
C          5.11806         9.57877        -1.17822
C          6.15607         8.74028        -1.28564
C        -11.26206        -0.67001         0.29545
C        -10.05416        -1.47539         0.43346
C         -8.74626        -0.85893        -0.02591
C         -7.49588        -1.45562         0.57512
C         -6.33505        -0.77899         0.72946
C         -5.00464        -1.50834         0.60883
C         -3.86620        -0.72530         1.23259
C         -2.62461        -1.45033         1.64940
C         -1.35371        -0.68280         1.33755
C         -0.07744        -1.39028         1.03806
C          1.25936        -0.62293         0.94756
C          2.49402        -1.41510         1.51408
C          3.71683        -0.55222         1.18373
C          4.94218        -1.19059         0.63367
C          6.24379        -0.43557         0.68761
C          7.47221        -1.11216         0.17134
C          8.82543        -0.66030         0.64254
C         10.08564        -1.40263         0.17151
C         11.17629        -0.44573        -0.25662
C        -10.08856        -2.81342         0.68313
C         -8.84674        -3.63296         0.74824
C         -7.51963        -2.93109         0.71841
C         -6.24946        -3.71846         0.40041
C         -5.01732        -2.99405         0.92607
C         -3.90641        -3.68104         1.28985
C         -2.58131        -3.01257         1.76035
C         -1.39162        -3.60117         0.84849
C         -0.06465        -2.89204         1.14368
C          1.25526        -3.58607         0.95534
C          2.52224        -2.79623         0.86458
C          3.65634        -3.36374         0.37317
C          5.00728        -2.71865         0.63863
C          6.10167        -3.25586        -0.27824
C          7.35409        -2.46898        -0.46998
C          8.59549        -3.15961        -0.91063
C          9.81808        -2.52658        -0.80020
C         -8.83581        -5.04643         0.31550
C         -7.67224        -5.75799         0.35505
C         -6.48385        -5.10621         1.05655
C         -5.20351        -6.02497         1.10785
C         -3.90698        -5.18252         1.33716
C         -2.59858        -5.89206         1.06434
C         -1.29556        -5.10980         1.03074
C         -0.01697        -5.78526         0.63590
C          1.35060        -5.07697         0.61494
C          2.26041        -5.33820        -0.57922
C          3.55092        -4.56730        -0.51206
C          4.80331        -5.25534        -1.00146
C          6.14063        -4.75501        -0.47708
C          7.30365        -5.26733        -1.30114
C          8.46125        -4.46208        -1.47406
C         -7.53474        -7.03472        -0.30262
C         -6.32049        -7.60675        -0.55775
C         -5.03419        -6.92568        -0.13054
C         -3.89963        -7.92629         0.13599
C         -2.58211        -7.34030         0.59315
C         -1.29594        -8.00382         0.14331
C         -0.12332        -7.08147        -0.10877
C          1.01392        -7.55256        -0.94969
C          2.25489        -6.71991        -1.27073
C          3.54250        -7.52908        -1.00546
C          4.77881        -6.70673        -1.33948
C          6.09333        -7.48612        -1.36675
C          7.24349        -6.57990        -1.73739
C         -6.22654        -8.79625        -1.38502
C         -5.07684        -9.49410        -1.53298
C         -3.88140        -9.18626        -0.71948
C         -2.60220        -9.73898        -1.13776
C         -1.36037        -9.17756        -0.79571
C         -0.19736        -9.65813        -1.40334
C          1.13818        -9.07357        -1.04979
C          2.31968        -9.50265        -1.88893
C          3.48820        -8.81544        -1.81976
C          4.71364        -9.25748        -2.48102
C          5.91353        -8.66727        -2.29483
O          0.71856         8.25322         1.33427
O         -3.60845         5.94942         1.73127
O          7.13590         3.40721         2.73240
O         -9.08433         1.08688        -1.41175
O         -0.13364        -6.91723        -1.58193
O          4.73247        -5.69073        -2.38707
O         -8.08502        -3.33063         2.00378
O         -0.50269         5.13694        -0.40531
O         -3.54672        -0.91057         2.62517
O          0.64437        -3.39281         2.29686
O         -5.06897         2.42668         2.24685
O          5.63513         5.86865         2.33990
O         -0.44771        -5.73574         2.02928
O          1.57863         1.00773         2.92032
O         -4.21986        -9.17494         0.74385
O          4.09556         0.52585         3.30714
O         -3.14093        -5.75293         2.41717
O         -8.07633         2.38293         1.62446
O         -1.79865        -8.20761         1.47317
O         -2.10567         1.18336         2.74198
O         -6.80840        -4.85730         2.38969
O          8.95913        -0.30214         2.03358
O         -2.23742         8.26408         0.91796
O         -0.96474        -0.96060        -0.06031
O         -2.30285        -3.33661         3.05208
O         -3.90376         3.86368        -1.01592
O         -2.38116         3.70074         2.45682
O          6.29536        -2.51093        -1.49552
O          3.99602        -0.53021        -0.25801
O          2.50328        -4.27666        -1.52495
O          6.22403        -5.40848         0.86537
O          6.78543        -0.08682        -0.62749
O          6.59260         0.38522         2.97269
H          5.68740         0.40021         3.44171
O         -0.10900         1.82446        -0.21599
H          0.08557         0.96540        -0.66774
O         10.64011        -2.08673         1.33801
H         10.43225        -1.52183         2.12003
O         -6.70597         0.47020         2.59984
H         -6.48028         1.31086         3.06248
O         -4.73860        -1.47936        -0.84252
H         -5.33195        -2.16140        -1.25693
O         -6.88230         4.02758        -2.64468
H         -5.98560         4.21555        -2.99756
O          5.62681         8.17882         1.43624
H          5.80080         7.62848         2.24275
O         -4.73930         8.12546        -0.09910
H         -4.27392         8.67366         0.57241
O          2.18676        -6.51919        -2.69005
H          2.64726        -5.66987        -2.89239
O          5.39852        -3.06483         1.99984
H          4.67900        -2.78930         2.61249
O         -5.37705        -6.92268         2.18695
H         -5.58781        -6.38995         2.98633
O          5.64668         6.44384        -1.77915
H          6.25358         6.52085        -2.54404
O          1.53598         5.87233         2.60254
H          2.29437         5.41560         3.04956
O          2.08408         5.21617        -0.97649
H          1.27069         4.66210        -0.92423
O          1.41186        -0.44995        -0.47998
H          2.35332        -0.55688        -0.75617
O          7.39890        -4.87706         1.53142
H          6.99360        -4.21134         2.15008
O         -1.74168        -3.43324        -0.52891
H         -1.59961        -2.48021        -0.76795
O         -3.54683         5.86150        -2.69936
H         -3.25951         4.94701        -2.47387
O         -1.27971        10.38851        -0.16103
H         -0.80382        10.19950         0.67806
O          1.40616        -9.50586         0.32414
H          1.56342       -10.47287         0.31880
O         -6.14468        -3.81697        -1.03631
H         -5.48122        -4.52378        -1.25520
O          2.44248        -1.55492         2.92728
H          1.69175        -2.15257         3.16127
O          2.09583        -5.67517         1.70190
H          1.49581        -5.68396         2.48435
O         -8.62412        -1.33582        -1.40445
H         -8.88502        -0.57696        -1.98564
O          4.30383         4.26332        -0.52459
H          3.68259         4.51380        -1.25411
O          3.75868         4.35030         3.05474
H          3.74044         3.60585         3.69516
O          6.34803        -8.01864        -0.02959
H          6.57388        -7.24757         0.55030
O          3.61681        -7.83179         0.39571
H          4.49849        -8.24407         0.56336
O          3.83772        10.13602         0.76405
H          4.51320         9.74433         1.37018
O         -3.57936         0.87373        -0.60333
H         -3.99432         0.10192        -1.06302
O         -4.58401        -6.07150        -1.22755
H         -4.62979        -6.58408        -2.06311
O         -0.04887         2.93357         3.28082
H         -0.96049         2.68240         3.56459
H         12.05728        -0.89278        -0.74101
H         12.08592         1.46735        -0.17784
H         10.95056         3.49923         0.35573
H          9.71767         5.55893         0.33982
H          8.36718         7.17287        -0.76552
H          7.06236         9.05143        -1.83182
H          5.19164        10.58852        -1.61337
H          2.70057        10.44325        -1.98603
H          0.29748        10.26103        -2.36415
H         -2.08142        10.04463        -2.84591
H         -4.26892         9.72499        -3.68137
H         -6.33013         8.37090        -3.79752
H         -7.78002         6.82246        -2.68417
H         -9.38779         5.20457        -1.58997
H        -10.94451         3.42145        -0.49359
H        -12.22596         1.16858        -0.16402
H        -12.22305        -1.17826         0.47048
H        -11.04881        -3.31963         0.87055
H         -9.73172        -5.44832        -0.18076
H         -8.44797        -7.52292        -0.67862
H         -7.13319        -9.11155        -1.92312
H         -5.03262       -10.35846        -2.21182
H         -2.61968       -10.53029        -1.90376
H         -0.26583       -10.51621        -2.09081
H          2.25782       -10.44352        -2.46006
H          4.63694       -10.13349        -3.14453
H          6.80407        -9.06499        -2.80512
H          8.09543        -7.00485        -2.29086
H          9.34789        -4.92251        -1.93624
H         10.71199        -3.04932        -1.17519
