         470
 CSIRO Nanostructure Databank - Neutral Graphene Oxide Data Set
C         37.31444        50.09452         0.21470
C         36.16682        50.82096         0.15972
C         37.35080        52.95352         0.28046
C         36.18502        52.25993         0.19347
C         39.90773        48.59928         0.33225
C         39.87556        50.03231         0.21317
C         38.60219        50.73385         0.51548
C         39.91223        52.94712         0.27031
C         38.62199        52.26858         0.54997
C         39.98239        54.37681         0.43078
C         42.29875        48.49221        -0.26019
C         41.05542        47.87891         0.21754
C         42.28847        50.04088        -0.38582
C         41.04341        50.75400        -0.01896
C         42.31354        52.90042        -0.34201
C         41.05889        52.20197         0.00813
C         42.34517        54.41725        -0.24096
C         41.14408        55.06932         0.28957
C         44.85406        45.71230         0.25311
C         43.63977        46.41671         0.21602
C         44.85161        48.48781        -0.27827
C         43.58322        47.77559        -0.07375
C         44.84348        50.01907        -0.41793
C         43.57518        50.77803        -0.31876
C         44.84650        52.90479        -0.41866
C         43.59769        52.15441        -0.29182
C         44.85991        54.28946        -0.48734
C         43.67439        55.12655        -0.05237
C         44.83230        57.16051        -0.93324
C         43.68206        56.50169        -0.68091
C         47.42298        44.22745         0.21468
C         47.37872        45.64949         0.21987
C         46.09983        46.38348         0.19287
C         47.30565        48.55931         0.40489
C         46.09692        47.78134         0.07142
C         47.30248        50.07113         0.27165
C         46.08624        50.78168        -0.18898
C         47.37641        52.83945        -0.49134
C         46.09693        52.15109        -0.37027
C         47.39355        54.26607        -0.88022
C         46.09193        55.02091        -0.85278
C         47.32224        57.18731        -0.68771
C         46.12500        56.50997        -0.77337
C         47.41424        58.63966        -0.68008
C         49.87106        44.20017         0.21513
C         48.62407        43.53422         0.23539
C         49.84712        45.64367         0.15610
C         48.59054        46.34876         0.18927
C         49.90419        48.57122         0.30683
C         48.61149        47.81505         0.44920
C         49.91651        50.07171         0.15133
C         48.60888        50.81694         0.18490
C         49.82699        52.84950        -0.85674
C         48.57046        52.18678        -0.36597
C         49.85321        54.32711        -0.58615
C         48.65500        55.00100        -0.62612
C         49.90621        57.19617        -0.41176
C         48.58974        56.45329        -0.43022
C         49.92756        58.64557        -0.87409
C         48.58527        59.31354        -0.71772
C         52.36711        41.35349         0.16922
C         51.19836        42.03764         0.21576
C         52.34398        44.20201         0.21250
C         51.13652        43.49234         0.19437
C         52.30997        45.66931         0.33338
C         51.05061        46.36242         0.09556
C         52.36676        48.52907        -0.22250
C         51.04937        47.80491        -0.33056
C         52.33005        49.93821        -0.65463
C         51.10877        50.74696        -0.43405
C         52.34512        52.87500        -0.80064
C         51.11554        52.11292        -0.62030
C         52.35054        54.25485        -0.67206
C         51.12194        55.01956        -0.53552
C         52.40560        57.14304        -0.40411
C         51.16491        56.42406        -0.53302
C         52.44643        58.66395        -0.40739
C         51.10189        59.35969        -0.23728
C         52.27340        61.31947         0.66193
C         51.06674        60.61864         0.27633
C         55.09774        39.88482         0.15826
C         55.00624        41.34605         0.04793
C         53.65413        42.06018         0.02208
C         54.81776        44.22311         0.28754
C         53.62479        43.53341         0.23384
C         54.84497        45.67531         0.04729
C         53.59412        46.44966         0.28680
C         54.83037        48.61222        -0.16841
C         53.57268        47.88827        -0.10016
C         54.88639        49.95757        -0.50201
C         53.63657        50.64307        -0.90182
C         54.92684        52.85470        -1.05462
C         53.61652        52.13843        -1.05432
C         54.92351        54.35200        -0.94595
C         53.58379        55.07899        -1.00723
C         54.82013        57.03323         0.20434
C         53.60559        56.44386        -0.33578
C         54.74653        58.43581         0.70820
C         53.39376        59.14218         0.68606
C         54.74143        61.34713         0.94701
C         53.47308        60.66379         0.75577
C         54.87023        62.59236         1.51850
C         57.49707        40.01853         0.67490
C         56.27869        39.27784         0.43296
C         57.42098        41.46104         0.69004
C         56.21380        42.10605         0.42107
C         57.36776        44.33028         0.64736
C         56.07706        43.56013         0.78469
C         57.40087        45.72781         0.41626
C         56.13579        46.42071         0.06869
C         57.36878        48.62883         0.21371
C         56.06014        47.89985         0.25412
C         57.36059        50.03357        -0.20310
C         56.13624        50.70496        -0.47105
C         57.37613        52.81433        -0.51605
C         56.16250        52.10628        -0.69528
C         57.39519        54.23075        -0.30449
C         56.15609        55.03630        -0.46283
C         57.29696        56.96879         0.66174
C         56.03753        56.36689         0.17748
C         57.34634        58.48836         0.79095
C         56.03042        59.22466         0.79854
C         57.27110        61.43149         0.42393
C         55.93773        60.67016         0.31069
C         57.29773        62.77021         1.07191
C         56.12041        63.27107         1.60637
C         59.94566        37.24446         1.17399
C         58.79076        37.92089         1.00554
C         59.88599        40.14514         1.27844
C         58.71637        39.37701         0.97415
C         59.83748        41.54999         1.30673
C         58.60860        42.23486         1.01687
C         59.70916        44.49387         1.48066
C         58.55500        43.65070         0.98605
C         59.87420        45.80647         0.73648
C         58.61545        46.45222         0.37726
C         59.82486        48.53790        -0.07747
C         58.62596        47.85910         0.12189
C         59.84468        49.95505        -0.23598
C         58.60416        50.68732        -0.31471
C         59.85380        52.79910        -0.44649
C         58.61739        52.10491        -0.43057
C         59.85681        54.22069        -0.29318
C         58.59870        54.87909        -0.08115
C         59.88933        57.03372         0.40173
C         58.59853        56.25030         0.44728
C         59.83081        58.51851         0.39480
C         58.61284        59.18650         0.48519
C         59.82368        61.40040         0.64285
C         58.57715        60.66328         0.39176
C         59.79001        62.76123         0.80938
C         58.56816        63.45888         1.16920
C         59.96140        65.37436         1.85951
C         58.70986        64.73925         1.72401
C         62.41224        36.26951        -0.18333
C         62.46844        37.46905         0.69154
C         61.21910        37.96648         1.35328
C         62.40192        40.18122         1.82243
C         61.07720        39.39378         1.86263
C         62.32944        41.67385         1.80452
C         61.03137        42.35754         1.57989
C         62.20095        44.53019         1.84227
C         60.99039        43.72689         1.57001
C         62.34300        45.95653         1.21827
C         61.07647        46.45786         0.58658
C         62.34892        48.53657        -0.13770
C         61.08302        47.72813        -0.25975
C         62.33285        49.91463        -0.33295
C         61.07601        50.64435        -0.37226
C         62.30419        52.76480        -0.72428
C         61.08815        52.06339        -0.50833
C         62.26322        54.25960        -0.97012
C         61.06385        54.95802        -0.36287
C         62.29514        57.10208        -0.15884
C         61.10100        56.35481        -0.11882
C         62.28789        58.50645         0.11539
C         61.08991        59.21465         0.31142
C         62.28728        61.41576         0.12245
C         61.13409        60.66685         0.74803
C         62.29906        62.87049         0.06917
C         61.01245        63.57619         0.58514
C         62.38273        65.56858         1.22201
C         61.12806        64.86172         1.28696
C         62.59073        66.82309         1.85494
C         64.82540        36.47940        -0.62411
C         63.50872        35.83517        -0.82259
C         64.88345        37.73083         0.15084
C         63.58051        38.45486         0.35759
C         64.86952        40.30405         1.46053
C         63.68271        39.62136         1.31475
C         64.89292        41.73480         1.92329
C         63.59688        42.46111         1.72430
C         65.23311        44.80796         1.78489
C         63.40661        43.75660         2.13484
C         64.94532        46.00646         1.03378
C         63.65967        46.55276         0.82170
C         64.85631        48.59063        -0.11555
C         63.62150        47.72616        -0.15519
C         64.77958        49.94785        -0.48460
C         63.56019        50.66265        -0.56280
C         64.74925        52.82023        -1.19610
C         63.53015        52.07747        -0.84119
C         64.80154        54.21175        -1.05273
C         63.56987        54.89288        -0.54875
C         64.83796        57.11513        -0.34168
C         63.57840        56.35884        -0.22039
C         64.84357        58.51368        -0.21104
C         63.59392        59.22192         0.17858
C         64.76915        61.48583        -0.34642
C         63.57457        60.73437         0.15306
C         64.79665        62.96527        -0.17550
C         63.57523        63.63237         0.07983
C         64.48506        65.94440         0.11197
C         63.45979        65.02860         0.44172
C         64.78687        67.11215         0.83136
C         63.78488        67.52752         1.74623
C         67.10129        33.36335        -0.75680
C         66.01930        34.15102        -0.86079
C         67.25860        36.14448         0.06015
C         66.09754        35.62327        -0.67624
C         67.26943        37.42140         0.59404
C         66.07706        38.25096         0.61111
C         67.34239        40.26643         1.26026
C         66.13126        39.63517         1.12171
C         67.54861        41.69721         1.73350
C         66.24221        42.49570         1.88741
C         67.44013        44.52360         0.88295
C         66.28906        43.93931         1.50759
C         67.38848        45.90068         0.57256
C         66.15537        46.61516         0.49506
C         67.34027        48.72092        -0.19195
C         66.11647        47.96151         0.02915
C         67.31415        49.98979        -0.71194
C         65.99435        50.57146        -1.03599
C         67.22406        52.53044        -1.96100
C         65.91456        51.96555        -1.56955
C         67.15830        54.62339        -1.74716
C         65.99990        55.04057        -1.10408
C         67.26412        57.13539        -0.56497
C         66.04254        56.41343        -0.59929
C         67.28624        58.54496        -0.41761
C         66.05513        59.23464        -0.30051
C         67.33682        61.41489        -0.23485
C         66.06182        60.70839        -0.43599
C         67.32997        62.82284        -0.11813
C         66.09949        63.57151        -0.23864
C         67.37710        65.70505         0.01632
C         66.25660        64.97254        -0.39697
C         67.30485        67.13098         0.31142
C         66.07880        67.79263         0.66729
C         67.32721        69.86464         1.01092
C         66.13593        69.16056         1.00723
C         69.49214        31.64980        -0.21643
C         69.59148        33.04269        -0.13255
C         68.47661        33.96938        -0.59607
C         69.74196        35.82505         0.66475
C         68.39078        35.22003         0.26641
C         69.79506        37.27388         0.79102
C         68.54255        37.98496         1.09907
C         69.85751        40.16728         0.86122
C         68.60901        39.49016         1.26667
C         69.81673        41.58077         0.61073
C         68.65307        42.35706         0.91322
C         69.82772        44.37385         0.15535
C         68.65040        43.74228         0.67148
C         69.93320        45.84684         0.18614
C         68.66214        46.63736         0.45724
C         69.91547        48.74662        -0.36280
C         68.64305        48.09775         0.15093
C         69.82751        50.09246        -0.96429
C         68.56083        50.87556        -0.68977
C         69.69548        52.81752        -1.94548
C         68.44992        52.07357        -1.61151
C         69.72629        54.38787        -1.80977
C         68.48180        55.03390        -1.30897
C         69.80992        57.14916        -0.75968
C         68.53972        56.41918        -0.66246
C         69.79080        58.55569        -0.52297
C         68.54706        59.25937        -0.37784
C         69.79946        61.38183        -0.07656
C         68.55385        60.67585        -0.21320
C         69.79779        62.80206         0.10288
C         68.56699        63.52963         0.05946
C         69.81509        65.65277         0.31141
C         68.59441        64.95840         0.17104
C         69.83096        67.14754         0.07112
C         68.53124        67.84452         0.41190
C         69.81285        69.96609         0.76999
C         68.55045        69.21912         0.72232
C         69.82835        71.37077         0.84769
C         71.81982        31.40177         0.40551
C         70.59061        30.83121         0.06426
C         71.94500        32.78572         0.48349
C         70.84065        33.62567         0.22712
C         72.15367        35.78624         0.27368
C         70.95591        35.07103         0.35717
C         72.18617        37.17707         0.40769
C         71.00582        37.94891         0.63268
C         72.16181        40.08827         0.07836
C         71.01232        39.41583         0.57634
C         72.13327        41.43512        -0.19451
C         70.96820        42.21079         0.04250
C         72.10768        44.31054        -0.74221
C         70.96039        43.62584        -0.19456
C         72.14708        45.66619        -0.90387
C         71.07388        46.51932        -0.47519
C         72.19577        48.57449        -1.31145
C         71.08624        47.90053        -0.68944
C         72.15853        49.90055        -1.63611
C         70.96126        50.69580        -1.47047
C         72.14345        52.87627        -1.73843
C         70.97640        52.13215        -1.76545
C         72.15743        54.29125        -1.59736
C         71.00058        55.04595        -1.48062
C         72.21344        57.19754        -1.02249
C         71.00318        56.45618        -1.06784
C         72.22516        58.54022        -0.69028
C         71.02978        59.25994        -0.44724
C         72.23657        61.38950         0.06719
C         71.03087        60.67455        -0.14675
C         72.23252        62.74994         0.30738
C         71.02928        63.49695         0.30235
C         72.22382        65.67043         0.68578
C         71.03318        64.93954         0.43041
C         72.20630        67.06016         0.84619
C         71.05574        67.82388         0.64314
C         72.25600        69.99763         0.91373
C         71.05262        69.26191         0.78048
C         72.24318        71.38328         1.00160
C         71.02542        72.07486         0.95752
O         65.68248        36.44195        -1.81479
O         69.59839        46.34257         1.53470
O         68.56199        55.20230         0.15023
O         69.49772        48.84222         1.07678
O         52.90408        50.04001        -2.02462
O         59.44935        56.37352         1.63540
O         62.24232        37.22089         2.10931
O         62.06564        45.72632         2.66270
O         62.48740        40.92235         3.07739
O         54.28619        52.47959        -2.33421
O         49.20772        56.93465         0.83537
O         55.82220        54.99465        -1.91550
O         42.19168        53.77096        -1.53069
O         42.16461        49.17265        -1.55162
O         65.22843        65.67030        -1.04143
O         57.34831        57.60761         1.96240
O         65.68087        50.82811        -2.49017
O         63.83729        59.98166         1.43535
O         49.63873        52.71605        -2.39754
O         65.60513        42.11090         3.14386
O         49.45665        50.74406         1.37588
O         61.34418        63.55546        -0.83413
O         56.64067        48.38626         1.49554
O         68.61348        38.59735         2.43418
O         65.27788        61.08375        -1.65586
O         46.69899        54.56195        -2.13089
O         67.09399        53.67814        -2.77485
O         55.53279        46.02162        -1.21756
O         63.64515        55.30099         0.83989
O         68.84169        35.11198         1.62488
O         55.31822        58.83943         2.00865
O         69.64617        53.72214        -3.08620
O         38.63187        51.47296         1.78312
O         64.37954        44.46187         2.83034
O         57.98677        61.28849        -0.84663
O         47.07013        49.42916         1.57327
O         54.36801        41.76377        -1.23876
O         44.95239        49.16837        -1.61502
O         53.01760        46.18083         1.59364
O         49.47630        48.12156         1.60561
O         50.72423        47.82953        -1.76820
H         51.55933        47.80005        -2.28325
O         63.17756        39.04022        -0.92863
H         63.98497        39.34550        -1.39357
O         52.96960        59.04443        -1.69791
H         52.37953        58.65061        -2.37907
O         50.71004        53.41904        -3.04461
H         51.33230        52.69796        -3.31160
O         50.22078        58.58306        -2.30866
H         50.11798        59.48573        -2.67744
O         55.59937        60.57361        -1.09520
H         56.41380        60.78953        -1.61014
O         43.80729        55.32042         1.39185
H         44.60441        55.86740         1.55564
O         68.65411        51.40218         0.66686
H         68.94778        50.64769         1.23791
O         69.97806        67.29183        -1.39856
H         70.81245        66.84136        -1.65051
O         61.02675        47.25694        -1.65718
H         61.94135        46.93807        -1.87529
O         68.87763        34.46094        -1.91393
H         68.85908        33.70692        -2.53958
O         55.84490        43.51876         2.26034
H         56.72230        43.49377         2.70333
O         62.17816        54.46576        -2.41845
H         61.40527        53.96251        -2.75111
O         63.69491        47.08562        -1.52517
H         63.96193        47.79441        -2.15204
O         53.36754        55.37738        -2.42631
H         53.67718        54.59348        -2.93392
O         59.35252        44.84819         2.86122
H         60.12826        45.33356         3.23127
O         61.39788        60.66838         2.20070
H         62.29326        60.25584         2.31990
O         52.74064        58.72686         1.91590
H         53.40107        58.82716         2.63790
O         68.12669        41.58853         3.06053
H         67.37375        41.48029         3.68738
O         60.70694        39.24097         3.25694
H         61.45038        38.78597         3.70782
H         37.28870        49.01606         0.00159
H         35.20948        50.31743        -0.03621
H         37.35280        54.04118         0.11869
H         35.24067        52.79607         0.02262
H         38.99359        48.08633         0.66249
H         39.09175        54.90005         0.80655
H         41.05098        46.81814         0.50239
H         41.20739        56.11878         0.61075
H         44.81775        44.62411         0.38791
H         42.71164        45.84303         0.34330
H         44.79788        58.20023        -1.29048
H         42.71766        57.00965        -0.82860
H         46.48852        43.65110         0.22265
H         46.47726        59.21544        -0.64962
H         48.58737        42.43686         0.26427
H         48.55677        60.41386        -0.74153
H         52.35805        40.25424         0.18132
H         50.26078        41.46952         0.28931
H         52.21795        62.41175         0.78367
H         50.11847        61.17442         0.33319
H         54.20513        39.28025        -0.05471
H         53.98843        63.08390         1.95469
H         56.29654        38.18109         0.47003
H         56.12958        64.24284         2.11961
H         59.95169        36.14596         1.19831
H         57.86797        37.34075         0.87994
H         59.98722        66.35434         2.35684
H         57.82437        65.27428         2.09398
H         61.45158        35.75161        -0.31575
H         61.80232        67.22825         2.50402
H         63.45066        34.98198        -1.51284
H         63.92574        68.43663         2.34709
H         66.99092        32.27710        -0.89037
H         65.03707        33.70235        -1.06971
H         67.30809        70.93141         1.26901
H         65.20616        69.68955         1.25805
H         68.54308        31.17561        -0.50313
H         68.88832        71.93734         0.81073
H         72.68467        30.75912         0.61977
H         70.48572        29.73940         0.00462
H         72.90733        33.22955         0.77441
H         73.09427        35.25245         0.07592
H         73.15976        37.67756         0.33112
H         73.08006        39.52646        -0.13457
H         73.03708        41.90626        -0.60069
H         72.97639        43.72571        -1.07077
H         73.04016        46.11183        -1.36161
H         73.12074        48.01511        -1.50516
H         73.04714        50.36600        -2.08344
H         73.10965        52.35982        -1.64800
H         73.13592        54.75883        -1.42030
H         73.16706        56.70525        -1.25471
H         73.19240        59.05912        -0.65557
H         73.19899        60.86123         0.05296
H         73.19344        63.25505         0.47213
H         73.17488        65.14347         0.83579
H         73.13813        67.54902         1.16390
H         73.22212        69.47498         0.92028
H         73.18816        71.93667         1.09070
H         71.01275        73.17217         1.01060
