         404
 CSIRO Nanostructure Databank - Neutral Graphene Oxide Data Set
C          1.22149         1.91716        -0.20848
C          1.18713         3.32993        -0.20006
C          2.42246         1.24398        -0.17975
C          2.35569         4.08654        -0.13989
C          1.13763         6.24748        -0.54323
C          1.12531         7.63183        -0.65596
C          2.32992         5.55396        -0.24516
C          2.31044         8.37935        -0.55155
C          1.05458        10.64141        -0.52371
C          1.04273        11.98844        -0.49564
C          2.29131         9.85311        -0.76106
C          2.28692        12.78203        -0.66392
C          1.06625        15.10358        -0.63903
C          1.10693        16.45878        -0.51299
C          2.30306        14.30740        -0.62625
C          2.34606        17.15968        -0.30827
C          2.40317        18.57133        -0.25985
C          3.65015         1.96840        -0.09941
C          3.61744         3.40552        -0.04870
C          4.88053         1.29227        -0.03967
C          4.83122         4.12694         0.09691
C          3.52024         6.29546        -0.10327
C          3.53152         7.69851        -0.29874
C          4.74284         5.60086         0.44418
C          4.77641         8.45247        -0.13936
C          3.60671        10.60217        -0.62304
C          3.56286        12.06737        -0.34960
C          4.79227         9.82503        -0.21199
C          4.69206        12.74506        -0.03440
C          3.53404        14.99421        -0.20784
C          3.54839        16.40126        -0.09547
C          4.68391        14.19775         0.36301
C          4.75755        17.10398         0.21486
C          3.59965        19.23516        -0.04635
C          4.81343        18.51724         0.18429
C          6.09872         2.00137         0.05226
C          6.06324         3.44429         0.12865
C          7.33621         1.32496         0.10970
C          7.31483         4.14756         0.24905
C          6.02381         6.35811         0.21425
C          6.03294         7.72758         0.09465
C          7.27270         5.61024         0.45668
C          7.29493         8.47345         0.02825
C          6.00154        10.58106         0.28708
C          5.99041        12.02930        -0.13763
C          7.29626         9.88014        -0.02334
C          7.26826        12.78741        -0.10517
C          6.02042        14.89872         0.24646
C          5.97809        16.34458         0.52976
C          7.22664        14.24517         0.17332
C          7.29556        17.10188         0.59309
C          6.06135        19.21904         0.28716
C          7.29565        18.56817         0.37899
C          8.57316         2.02548         0.11933
C          8.53666         3.48034         0.17865
C          9.78752         1.34304         0.05817
C          9.80116         4.20243         0.14559
C          8.57638         6.37077         0.35935
C          8.53704         7.79549         0.02077
C          9.81264         5.61852         0.14521
C          9.75535         8.48018        -0.23246
C          8.51581        10.60827        -0.12352
C          8.54050        12.03232        -0.00988
C          9.75560         9.91885        -0.30792
C          9.75183        12.71946         0.01792
C          8.48820        14.95737         0.26992
C          8.52230        16.33254         0.35443
C          9.74820        14.16193         0.32747
C          9.77586        17.09904         0.18198
C          8.53650        19.25182         0.33947
C          9.78350        18.57739         0.38090
C         11.07590         2.04005        -0.25320
C         11.02805         3.51582         0.03634
C         12.30690         1.38849         0.31834
C         12.25414         4.23583         0.08151
C         11.00816         6.34385        -0.05931
C         10.97417         7.75147        -0.25763
C         12.25892         5.65218        -0.02184
C         12.21830         8.41900        -0.65579
C         10.96595        10.65159        -0.44127
C         10.99255        12.04715        -0.21419
C         12.20692         9.93679        -0.79915
C         12.23429        12.79343        -0.35896
C         11.06531        14.86484         0.31408
C         11.05824        16.34843         0.15059
C         12.29021        14.16512        -0.14150
C         12.32664        17.01267         0.55911
C         11.00697        19.24600         0.41442
C         12.28693        18.56779         0.64726
C         13.47772         2.09644         0.49632
C         13.49256         3.54919         0.30657
C         14.72372         1.43523         0.78138
C         14.66825         4.28809         0.46729
C         13.49171         6.37874        -0.03543
C         13.50451         7.76917        -0.36508
C         14.70154         5.69990         0.25922
C         14.70674         8.49191        -0.43903
C         13.50882        10.63153        -0.80289
C         13.42951        12.10950        -0.90021
C         14.69452         9.91880        -0.76818
C         14.73801        12.90996        -0.98059
C         13.53594        14.91569        -0.15712
C         13.56807        16.30935         0.26900
C         14.74136        14.25729        -0.40138
C         14.78195        17.03239         0.33543
C         13.57631        19.21644         0.45792
C         14.76634        18.49384         0.42783
C         15.91534         2.13467         0.94334
C         15.87516         3.61780         0.98821
C         17.17442         1.48852         0.97316
C         17.14959         4.40522         1.11621
C         15.93694         6.44285         0.28761
C         15.93361         7.81917        -0.09493
C         17.16614         5.79838         0.60666
C         17.17732         8.52482        -0.13943
C         15.99749        10.58031        -1.06572
C         16.02713        12.15507        -1.16420
C         17.22207         9.82669        -0.73692
C         17.26787        12.93907        -0.94272
C         16.01367        14.84579         0.16506
C         16.01506        16.35565         0.16167
C         17.26810        14.23702        -0.39875
C         17.23581        17.06625         0.08393
C         16.01942        19.18257         0.40506
C         17.23399        18.51521         0.25885
C         18.39953         2.18254         0.99087
C         18.46750         3.66119         1.35314
C         19.59862         1.49088         0.80624
C         19.67030         4.36086         0.75995
C         18.39617         6.49127         0.49931
C         18.39708         7.86727         0.17264
C         19.65997         5.75354         0.56800
C         19.67523         8.66982         0.31416
C         18.49760        10.30282        -1.12052
C         18.51509        12.40744        -1.33605
C         19.70377         9.91968        -0.53258
C         19.75170        12.93504        -0.91145
C         18.47916        14.98387        -0.38271
C         18.44967        16.39132        -0.16186
C         19.73856        14.32054        -0.59000
C         19.68490        17.18769        -0.48777
C         18.47506        19.21181         0.34066
C         19.70180        18.57514         0.11096
C         20.85118         2.16174         0.67344
C         20.86414         3.61214         0.60617
C         22.03637         1.43800         0.50636
C         22.08428         4.28171         0.31968
C         20.88612         6.43241         0.25627
C         20.92447         7.86076         0.07660
C         22.07725         5.68672         0.15087
C         22.12865         8.56353        -0.10702
C         20.91529        10.69742        -0.59875
C         20.94870        12.12963        -0.79366
C         22.13655        10.00716        -0.28567
C         22.18563        12.83438        -0.65195
C         20.97454        15.01961        -0.46876
C         20.97282        16.42718        -0.29183
C         22.20761        14.29278        -0.57251
C         22.17467        17.13281        -0.16417
C         20.93082        19.23742         0.24304
C         22.17632        18.56806         0.05248
C         23.29485         2.08933         0.33908
C         23.31505         3.52052         0.25556
C         24.51310         1.37812         0.28087
C         24.55568         4.18594         0.22149
C         23.35123         6.36847        -0.27482
C         23.37928         7.86417        -0.07502
C         24.54075         5.66106         0.32131
C         24.59726         8.55293        -0.00908
C         23.37299        10.69758        -0.29249
C         23.38635        12.10192        -0.50000
C         24.62648         9.99072        -0.10449
C         24.67960        12.78688        -0.61043
C         23.41214        15.01409        -0.48686
C         23.42123        16.42984        -0.25834
C         24.69433        14.30724        -0.63495
C         24.63260        17.15969        -0.21743
C         23.39783        19.24873         0.13065
C         24.64402        18.57355        -0.00560
C         25.76201         2.04536         0.20925
C         25.77481         3.48416         0.22984
C         26.99321         1.34419         0.14237
C         27.03544         4.18779         0.24011
C         25.83107         6.39004         0.40085
C         25.85736         7.84599         0.13100
C         27.07758         5.60714         0.32085
C         27.05581         8.51548         0.19505
C         25.85258        10.67945        -0.01707
C         25.90668        12.11246        -0.15853
C         27.09461         9.96020         0.18015
C         27.06213        12.84075         0.11033
C         25.93932        14.98765        -0.25617
C         25.91094        16.45100        -0.37849
C         27.10304        14.28986         0.03883
C         27.19754        17.20324        -0.13753
C         25.87179        19.28447         0.13722
C         27.13040        18.65662         0.15803
C         28.23952         2.01267         0.03117
C         28.25071         3.46796         0.08674
C         29.45250         1.30114        -0.02272
C         29.47610         4.17489         0.13268
C         28.29712         6.28966         0.35368
C         28.37072         7.78257         0.14381
C         29.50283         5.56192         0.34749
C         29.47626         8.45551         0.93954
C         28.27807        10.64568         0.42687
C         28.24836        12.10440         0.58831
C         29.50427         9.94731         0.89866
C         29.55809        12.83411         0.78758
C         28.33481        15.02194         0.36061
C         28.34693        16.41708         0.33276
C         29.57352        14.30131         0.58368
C         29.52176        17.19164         0.73050
C         28.34533        19.34321         0.32939
C         29.58235        18.64435         0.44079
C         30.71745         1.94357        -0.34060
C         30.73769         3.51890        -0.24793
C         32.01843         1.30644        -0.26105
C         32.02945         4.19599        -0.02529
C         30.78239         6.23278         0.69156
C         30.76621         7.68670         1.05620
C         32.06148         5.56631         0.35268
C         32.05732         8.46175         1.04976
C         30.82227        10.63685         0.77994
C         30.83355        12.07805         0.67149
C         32.00563         9.91272         0.74230
C         32.02567        12.77828         0.56812
C         30.79331        14.95554         0.62011
C         30.84827        16.41230         0.80397
C         32.04540        14.22335         0.59103
C         32.06161        17.13417         0.44497
C         30.82517        19.26751         0.35360
C         32.06265        18.53336         0.29053
C         33.21008         2.03737        -0.41280
C         33.22463         3.49094        -0.25433
C         34.43576         1.36990        -0.62724
C         34.46420         4.19295        -0.19697
C         33.27803         6.26284         0.42146
C         33.33944         7.70528         0.78071
C         34.49200         5.58938         0.10147
C         34.57401         8.46063         0.44458
C         33.26604        10.55772         0.33931
C         33.28777        12.07978         0.26695
C         34.56991         9.86179         0.42458
C         34.58195        12.75362         0.46724
C         33.24873        14.89830         0.51356
C         33.24894        16.32939         0.16128
C         34.53585        14.19368         0.69853
C         34.55398        17.04764        -0.08139
C         33.29462        19.20406         0.00375
C         34.51187        18.52553        -0.11715
C         35.66864         2.06529        -0.75142
C         35.68916         3.49931        -0.46826
C         36.83802         1.37849        -1.08082
C         36.89789         4.18855        -0.38194
C         35.74087         6.30443         0.11404
C         35.78456         7.73621         0.26548
C         36.94617         5.59108        -0.08554
C         37.01472         8.44693         0.18978
C         35.78814        10.60492         0.32047
C         35.79944        12.05985         0.39962
C         37.01759         9.88713         0.25399
C         37.06602        12.78301         0.39379
C         35.86593        14.96579         0.58750
C         35.83996        16.36773         0.16411
C         37.11734        14.20752         0.40204
C         37.02906        17.03710        -0.09089
C         35.72850        19.15817        -0.43234
C         36.93847        18.43339        -0.52123
C         38.10954         2.07446        -1.24987
C         38.14111         3.51495        -0.79848
C         39.40029         1.34516        -1.36557
C         39.42462         4.05873        -0.26861
C         38.19450         6.29112        -0.03207
C         38.23608         7.69218         0.07275
C         39.45533         5.52639         0.03625
C         39.50262         8.38412         0.01420
C         38.25210        10.61243         0.25901
C         38.28523        12.02572         0.28217
C         39.50496         9.83123         0.28516
C         39.54500        12.75052         0.24667
C         38.34040        14.95895         0.34192
C         38.31371        16.38721         0.10551
C         39.56755        14.17180         0.41621
C         39.47474        17.23774        -0.10150
C         38.08862        19.07415        -0.99624
C         39.35580        18.49667        -0.79203
C         40.58553         1.96077        -1.19318
C         40.69101         3.31285        -0.57742
C         41.91269         4.12584        -0.75979
C         40.78301         6.25698        -0.10792
C         40.71254         7.73089        -0.23388
C         41.94052         5.46496        -0.59178
C         41.87579         8.48672        -0.61621
C         40.81807        10.58068         0.09179
C         40.77881        12.06056         0.08145
C         41.90970         9.84516        -0.54639
C         42.00589        12.72993         0.14862
C         40.83011        14.73311         0.73318
C         40.76912        16.98705         0.42314
C         42.03690        14.06369         0.54710
C         41.89168        17.75779         0.13920
C         40.51348        19.25357        -1.13933
C         41.76819        18.88061        -0.70186
O         26.75470        16.91152        -1.50774
O          7.95746         6.05808         1.68419
O         28.72481        12.48799         1.94744
O         25.00642         6.12851         1.61829
O         38.11144         3.20913        -2.23222
O         33.17172        11.26803        -0.95280
O         33.79764        16.47835        -1.22470
O         18.55385        11.26991        -2.13995
O         40.91542        15.97485         1.37384
O          6.58935        16.70444         1.82600
O         35.23542        14.69043         1.89694
O         16.01744        11.30712        -2.33145
O          6.62798        12.37759        -1.40186
O         30.72477         6.68391         2.10730
O         30.63470         2.85529        -1.51139
O         12.08794         9.05966        -1.97329
O         12.25882        17.67663         1.84079
O          3.06238        10.25534        -1.93995
O         24.82637        13.52442        -1.87440
O         40.27054         5.82942         1.20146
O         10.47737        16.77738        -1.11324
O         32.92065         8.06521         2.15701
O         30.13320        16.85036         2.00874
O          2.41691        13.51403        -1.92057
O         29.18109         9.18997         2.14341
O         40.40600        10.11213         1.41857
O         13.87337        12.73642        -2.14459
O         16.26583         4.22422         2.28638
O         10.51080        14.41679         1.58879
O         40.07811         3.27723         0.77130
O         18.71887         3.68735         2.78872
H         17.83216         3.67275         3.22161
O         19.71936         9.11019         1.72251
H         19.79568         8.30627         2.27962
O         28.85449         7.93636        -1.24198
H         28.18088         7.55613        -1.84546
O         19.60237        17.40591        -1.94880
H         20.39314        17.92593        -2.20832
O         23.48159         6.15645        -1.72533
H         22.69438         6.55243        -2.15582
O          4.56329         5.62787         1.91010
H          5.40604         5.32699         2.31437
O         16.01130        14.44235         1.59562
H         15.30118        14.95432         2.04069
O          5.89069        10.63012         1.74868
H          5.92372         9.70932         2.08579
O         11.22843         1.93324        -1.73694
H         12.05208         2.41119        -1.97471
O          4.41034        14.18207         1.81851
H          4.75830        15.01729         2.20233
H          0.27598         1.35925        -0.25643
H          0.20676         3.82247        -0.24813
H          2.45106         0.14536        -0.20710
H          0.19502         5.70181        -0.68121
H          0.17505         8.13838        -0.87382
H          0.11348        10.09610        -0.35730
H          0.09115        12.51974        -0.34434
H          0.11529        14.59573        -0.85335
H          0.17946        17.04614        -0.58367
H          1.47879        19.14643        -0.41594
H          4.89657         0.19255        -0.06459
H          3.62486        20.33438        -0.04997
H          7.34576         0.22528         0.07294
H          6.04454        20.31466         0.18578
H          9.78071         0.24209         0.04417
H          8.53077        20.35206         0.31480
H         12.31171         0.29465         0.44142
H         11.01974        20.34304         0.32289
H         14.74257         0.33479         0.78642
H         13.60644        20.30794         0.32147
H         17.19766         0.39309         0.85879
H         16.01794        20.27654         0.52311
H         19.57400         0.39565         0.69269
H         18.46469        20.27536         0.62533
H         22.00461         0.33871         0.54315
H         20.94105        20.29826         0.53711
H         24.49496         0.27860         0.31901
H         23.39793        20.33375         0.31259
H         26.97936         0.24391         0.13540
H         25.82299        20.37004         0.31100
H         29.45071         0.21948         0.17770
H         28.34823        20.44336         0.35184
H         32.07057         0.21626        -0.12534
H         30.86347        20.35456         0.18761
H         34.42845         0.27922        -0.77034
H         33.28386        20.29843        -0.10789
H         36.81489         0.28197        -1.16891
H         35.74332        20.23904        -0.63642
H         39.36500         0.30319        -1.71884
H         38.01584        20.08476        -1.42324
H         41.52302         1.41731        -1.38815
H         42.81193         3.61183        -1.13322
H         42.87691         5.99930        -0.80939
H         42.73842         7.95259        -1.03798
H         42.75307        10.39729        -0.98428
H         42.94550        12.17500         0.02855
H         42.98390        14.56673         0.77822
H         42.85482        17.50034         0.59756
H         40.37743        20.17955        -1.71535
H         42.65145        19.48425        -0.95018
