         349
 CSIRO Nanostructure Databank - Neutral Graphene Oxide Data Set
C          2.59112         3.90100        -3.33731
C          1.61464         4.70337        -3.96232
C          2.05792         6.58850        -2.42979
C          1.43693         6.02779        -3.62335
C          2.05412         8.04845        -2.16572
C          1.05458         8.83776        -2.75273
C          1.80032        10.76168        -1.48872
C          0.93943        10.18330        -2.43309
C          1.65603        12.24727        -1.27518
C          0.25529        12.70729        -0.91129
C          1.27968        14.88417        -0.55863
C          0.07736        14.00037        -0.60339
C          1.21654        16.36765        -0.43836
C         -0.03360        17.13628        -0.45544
C          1.17348        19.27961        -0.40284
C         -0.02216        18.51274        -0.43102
C          1.18136        20.71406        -0.40821
C         -0.01669        21.47410        -0.56324
C          1.18973        23.58533        -0.32573
C         -0.00262        22.85525        -0.57055
C          1.24492        25.03846        -0.39371
C          0.09167        25.81877        -0.53413
C          1.34119        27.91718        -0.65768
C          0.13938        27.23242        -0.60625
C          1.41369        29.34798        -0.72728
C          4.65432         3.77419        -2.01601
C          3.48110         4.44358        -2.39348
C          4.24339         6.46400        -1.03502
C          3.18934         5.75458        -1.78306
C          4.08030         7.85058        -0.68398
C          2.96918         8.62629        -1.24557
C          3.67308        10.58709         0.19362
C          2.82548         9.99846        -0.91149
C          3.77690        12.09376         0.17010
C          2.64442        12.84686        -0.29490
C          3.53786        14.96106         0.64877
C          2.50270        14.19337        -0.05397
C          3.57123        16.43523         0.42227
C          2.42903        17.08889        -0.00175
C          3.56888        19.29878         0.30186
C          2.49227        18.52634        -0.45870
C          3.71798        20.71927        -0.26822
C          2.39530        21.45293        -0.20663
C          3.56527        23.59170         0.49238
C          2.38498        22.84700        -0.09804
C          3.68300        25.02467         0.02364
C          2.53188        25.70572        -0.33487
C          3.82873        27.87358        -0.27446
C          2.62440        27.14027        -0.80838
C          3.84174        29.32574        -0.30184
C          2.60402        30.01388        -0.62437
C          6.74422         3.67605        -0.75634
C          5.59624         4.38224        -1.15491
C          6.40824         6.32707         0.15256
C          5.41174         5.74719        -0.70646
C          6.13969         7.67193         0.70277
C          5.05185         8.48610         0.11985
C          6.07743        10.59504         0.94814
C          5.00209         9.89632         0.38983
C          6.09483        12.03960         1.05218
C          4.87511        12.74309         0.71607
C          6.09440        14.91710         1.02547
C          4.81601        14.19364         0.97814
C          6.07950        16.35464         0.72819
C          4.82028        17.13473         0.59063
C          6.06589        19.27283         0.59786
C          4.87778        18.53600         0.42737
C          6.07442        20.71348         0.54642
C          4.87384        21.45315         0.36119
C          6.07644        23.55804         0.66209
C          4.86992        22.84226         0.44457
C          6.09651        25.00205         0.59994
C          4.94135        25.71185         0.19379
C          6.18329        27.88498         0.47135
C          4.95835        27.16084         0.06462
C          6.19596        29.41246         0.52686
C          4.97230        30.05149         0.02108
C          8.88648         3.54618         0.39976
C          7.72604         4.27000         0.06469
C          8.53228         6.19168         1.53031
C          7.54064         5.62045         0.53303
C          8.59023         7.70459         1.47559
C          7.29495         8.37216         1.43359
C          8.46726        10.61983         1.88325
C          7.22028         9.86258         1.54452
C          8.51691        12.08234         1.63224
C          7.26916        12.76965         1.37790
C          8.51635        14.97646         1.49129
C          7.28170        14.22994         1.26267
C          8.53780        16.35385         1.50987
C          7.36580        17.10632         1.01010
C          8.54371        19.34543         1.30477
C          7.26306        18.58630         1.15274
C          8.54327        20.62536         0.48564
C          7.28886        21.43449         0.71426
C          8.54703        23.54627         1.11519
C          7.29306        22.83026         0.76605
C          8.60341        25.00771         0.91712
C          7.36927        25.68679         0.70777
C          8.64856        27.62899         0.08949
C          7.42072        27.07090         0.42528
C          8.67298        29.81496         0.30849
C          7.44417        30.23436         0.73862
C         11.12903         3.39776         1.33296
C          9.98349         4.13907         1.07976
C         11.07463         6.24075         1.73180
C          9.89942         5.54900         1.43983
C         11.07429         7.70282         1.89112
C          9.73290         8.34231         2.24815
C         11.04543        10.63544         2.10463
C          9.75090         9.88005         2.17790
C         11.00444        12.06690         1.67773
C          9.73155        12.75544         1.69186
C         11.03822        14.90607         1.47868
C          9.76000        14.23928         1.94991
C         11.09649        16.35497         1.66598
C          9.80033        17.10705         1.78618
C         11.09425        19.19747         0.99195
C          9.83738        18.60031         1.52613
C         11.12216        20.64818         0.69402
C          9.85087        21.40084         0.58669
C         11.15144        23.51078         1.20876
C          9.83850        22.78624         1.14232
C         11.13063        25.01133         1.09476
C          9.83845        25.68853         0.85206
C         11.10305        27.83332         0.47692
C          9.88706        27.05343         0.44661
C         11.11455        29.26972         0.62029
C         10.02151        30.13779         0.70718
C         13.56618         3.36881         1.46839
C         12.32006         4.02542         1.97870
C         13.54420         6.19133         1.63818
C         12.31693         5.51732         1.75458
C         13.54145         7.66587         1.76076
C         12.25010         8.39432         1.88200
C         13.41738        10.51795         1.22001
C         12.38379         9.89244         2.15619
C         13.41564        12.00406         1.11465
C         12.16102        12.74927         1.32850
C         13.37259        14.90237         0.66547
C         12.18361        14.19846         1.15968
C         13.44045        16.26951         0.62182
C         12.37677        17.08438         1.23460
C         13.45144        19.22468         0.24555
C         12.26451        18.51539         0.87635
C         13.59092        20.66374         0.69536
C         12.40333        21.37748         0.87966
C         13.59440        23.48407         0.63072
C         12.40133        22.78471         0.89923
C         13.56166        24.93836         0.45574
C         12.36693        25.68432         0.64885
C         13.59898        27.75534         0.32451
C         12.34661        27.09127         0.49001
C         13.67009        29.16785         0.52211
C         12.44443        29.91814         0.98718
C         15.87641         3.37619         0.66104
C         14.72628         4.07362         1.18227
C         16.01744         6.24496         1.16616
C         14.74994         5.50980         1.37434
C         15.97395         7.70216         0.83699
C         14.73615         8.41783         1.23286
C         15.48383        10.36312        -0.16519
C         14.51085         9.81247         0.80878
C         15.28161        11.77717        -0.59794
C         14.50816        12.68191         0.29989
C         15.84772        14.81225         0.05793
C         14.45979        14.15073        -0.08426
C         15.88446        16.20624         0.01541
C         14.58299        16.97266        -0.11329
C         16.03894        19.09980         0.53653
C         14.71293        18.40685         0.39916
C         16.13733        20.62463         0.79579
C         14.81854        21.35767         0.60148
C         16.11459        23.51689         0.33982
C         14.80938        22.75857         0.51201
C         15.87019        24.76770        -0.53567
C         14.72437        25.59190         0.00251
C         16.00928        27.68128        -0.25030
C         14.77071        27.00549         0.00411
C         16.07747        29.07292         0.07389
C         14.89734        29.78751         0.46533
C         18.18826         3.37103        -0.23520
C         17.05110         4.02521         0.31328
C         18.17411         6.24377        -0.26216
C         17.18787         5.47379         0.60515
C         18.40002         7.65711         0.29243
C         17.04623         8.36931         0.31016
C         17.97212        10.44666        -1.06633
C         16.81659         9.66682        -0.39676
C         18.18829        11.90071        -0.60404
C         17.32091        12.63709         0.36411
C         18.26580        14.75406        -0.34014
C         17.09106        14.09042         0.02431
C         18.28524        16.17502        -0.45183
C         17.11531        16.92002        -0.12729
C         18.39392        19.00922        -0.32308
C         17.21518        18.34889         0.01500
C         18.58172        20.47374         0.07041
C         17.29050        21.28889         0.06762
C         18.29300        23.32476        -0.91626
C         17.24683        22.64841        -0.20274
C         18.21827        24.70038        -1.31797
C         17.12678        25.55648        -0.87083
C         18.30387        27.80394        -1.11195
C         17.14923        26.97317        -0.78304
C         18.42699        29.12756        -0.56886
C         17.31157        29.74058         0.03910
C         19.36405         4.07091        -0.54770
C         20.62760         6.19481        -0.83907
C         19.44534         5.46707        -0.49709
C         20.67863         7.56223        -0.83845
C         19.52533         8.39100        -0.43490
C         20.32841        10.49104        -1.83473
C         19.33954         9.78232        -0.96441
C         20.28966        11.84113        -1.85415
C         19.29419        12.56057        -1.05177
C         20.62292        14.72104        -1.20608
C         19.55755        13.95498        -0.47431
C         20.57901        16.05765        -1.35978
C         19.45954        16.86047        -0.89075
C         20.67965        18.97672        -1.31075
C         19.49784        18.26646        -0.85520
C         20.77709        20.31955        -1.26441
C         19.72099        21.16626        -0.67597
C         20.37421        23.02283        -2.31770
C         19.53039        22.57042        -1.21115
C         20.13154        24.24040        -2.87666
C         19.16166        25.11229        -2.29926
C         20.45350        28.19658        -2.26879
C         19.31000        27.43983        -2.03336
C         20.63221        29.41204        -1.57906
C         19.62197        29.88072        -0.76391
O         10.62770        21.17727        -0.64225
O          7.64389        19.21946         2.42951
O          9.86604        18.05807         2.88298
O         17.13078         5.79257         2.01607
O          3.83657        14.56086         2.02502
O         19.88396         9.58641         0.37543
O          5.97534        28.59576         1.75077
O         10.33782        10.46095         3.38372
O          7.46732        10.31446         2.92327
O         12.10656        16.77606         2.63283
O         11.26757        24.34754         2.40167
O          9.08224        22.95772         2.36997
O          8.63728        28.79628        -0.67199
O         14.63351        12.52834         1.73437
O         14.54977         8.19770         2.69389
O         20.30215        22.28148         0.06741
O          1.49729        15.66524        -1.81069
O         15.69018         9.48967        -1.32190
O         19.12703        26.34148        -2.90106
O          1.85481         5.82058        -1.19883
O          6.19312         7.71568         2.16702
O          7.03254        16.70176        -0.36002
O         15.36738        18.45578         1.68981
O         14.09262        14.26141        -1.49022
O         17.01447        12.13262         1.43918
O         17.70071        10.48997        -2.47769
H         16.79178        10.86211        -2.58870
O         12.24960         3.80911         3.44426
H         13.01611         4.27087         3.84623
O         16.54241        23.95619         1.64703
H         16.64033        23.15387         2.20730
O          2.84799        27.05395        -2.27065
H          2.08097        26.57277        -2.64857
O         16.41066        20.79854         2.21879
H         16.02004        20.01954         2.67983
O         17.55025         6.42113        -1.56682
H         17.53324         5.55070        -2.01751
O          8.40010        20.14088        -0.88188
H          9.18450        20.44702        -1.39700
O         15.40575        24.22090        -1.81696
H         15.19700        24.97451        -2.40818
O          3.25695        23.67696         1.93266
H          2.44933        24.22553         2.02925
O         19.00163        20.40878         1.46146
H         19.40011        21.28204         1.67642
O         14.26836        17.01007        -1.52116
H         14.12971        16.07232        -1.80982
O          2.92094        10.29052         1.42506
H          3.49469        10.51376         2.18948
O          9.76318        14.37244         3.40661
H         10.51789        13.85518         3.76085
O         15.59738        12.13361        -1.74474
H         14.70189        13.66279        -1.99630
O         12.51143        30.04906         2.42390
H         12.51682        29.14896         2.81079
O          3.05660        19.42894         1.65185
H          3.71210        19.92470         2.18702
O          2.85157        18.40901        -1.87485
H          2.33007        17.66450        -2.25343
O          1.96715        12.82307        -2.58077
H          1.82181        13.79563        -2.53921
O          9.51590         7.99677         3.65166
H          9.79527         8.78093         4.18287
O          8.03984         5.80786         2.85854
H          8.42744         6.45162         3.50068
O          4.10332        20.69670        -1.66874
H          3.62573        19.95805        -2.11793
O         12.86350        10.07914         3.50211
H         13.68828         9.54237         3.59607
O         18.86622         7.52939         1.64504
H         19.24998         8.39551         1.90602
O         20.07858        13.73048         0.86926
H         19.40374        13.23679         1.38387
O         13.19450        19.32778        -1.18097
H         12.41776        19.91393        -1.31183
H          2.76726         2.88113        -3.70806
H          1.06307         4.28952        -4.81866
H          0.84821         6.67725        -4.28560
H          0.33961         8.39003        -3.45546
H          0.16288        10.79859        -2.90723
H         -0.59146        12.00676        -0.96114
H         -0.91767        14.41636        -0.38688
H         -0.98991        16.59876        -0.52069
H         -0.99167        19.03197        -0.42883
H         -0.97285        20.95990        -0.73075
H         -0.94487        23.38943        -0.75534
H         -0.89635        25.33899        -0.53389
H         -0.80624        27.79491        -0.60265
H          0.47679        29.91396        -0.84436
H          4.85623         2.76635        -2.40786
H          2.62386        31.11252        -0.67683
H          6.88255         2.63873        -1.09573
H          4.96130        31.14523        -0.10392
H          8.97554         2.50155         0.06373
H          7.36406        31.04807         1.47529
H         11.17756         2.34517         1.01713
H         10.21623        31.14664         1.10517
H         13.56180         2.27414         1.35412
H         12.47245        30.96066         0.57969
H         15.78782         2.29159         0.49681
H         14.98682        30.85860         0.69883
H         18.16098         2.27942        -0.36437
H         17.38361        30.78149         0.38475
H         20.25351         3.49972        -0.85449
H         21.52738         5.62283        -1.11322
H         21.61167         8.07779        -1.10632
H         21.11787         9.93399        -2.35949
H         21.03413        12.40965        -2.42938
H         21.51915        14.17334        -1.53007
H         21.42562        16.55432        -1.85291
H         21.52736        18.40534        -1.70909
H         21.70869        20.80707        -1.58308
H         21.19556        22.39583        -2.68696
H         20.73677        24.61579        -3.71243
H         21.18761        27.85597        -3.00972
H         21.54168        30.00560        -1.74232
H         19.70238        30.86915        -0.29065
