         232
 CSIRO Nanostructure Databank - Neutral Graphene Oxide Data Set
C        -10.75235         0.68764        -1.46587
C         -9.74428         1.48067        -0.78935
C         -8.49246         0.76712        -0.39115
C         -7.71483         1.43266         0.74058
C         -6.40438         0.66794         1.20933
C         -5.08494         1.45842         1.12467
C         -3.79056         0.69792         1.09573
C         -2.58413         1.36454         1.11068
C         -1.25703         0.62380         1.27141
C         -0.03800         1.39701         0.80552
C          1.13689         0.69848         0.46332
C          2.39150         1.35960         0.49017
C          3.62144         0.58617         0.30598
C          4.97510         1.29770         0.37935
C          6.13261         0.74072        -0.32211
C          7.35678         1.43623        -0.31739
C          8.56175         0.78937        -0.63663
C          9.79969         1.31818         0.06065
C         11.08579         0.63476        -0.32431
C         -9.89907         2.81820        -0.56677
C         -8.84967         3.67696         0.10667
C         -7.55118         2.87200         0.22644
C         -6.27287         3.60750         0.25572
C         -5.05643         2.91395         0.79219
C         -3.73961         3.57145         0.50848
C         -2.49353         2.81966         0.81880
C         -1.25282         3.59442         1.17883
C          0.06723         2.81196         1.32357
C          1.25512         3.58931         0.83490
C          2.49037         2.85808         0.40469
C          3.74413         3.48455         1.00899
C          5.03419         2.73714         0.83967
C          6.28307         3.53652         0.65899
C          7.38586         2.95193        -0.21083
C          8.72535         3.57425         0.14706
C          9.86891         2.82127         0.10692
C         -8.61795         5.00790        -0.59955
C         -7.47288         5.73258        -0.45504
C         -6.30645         5.13295         0.30489
C         -4.97191         5.67781        -0.17171
C         -3.77919         5.07142         0.50613
C         -2.50300         5.82877         0.55300
C         -1.23304         5.08279         0.90560
C          0.05590         5.72907         0.63805
C          1.26801         4.99845         0.74610
C          2.52317         5.71506         0.62599
C          3.76958         4.99988         0.95671
C          5.05228         5.71171         0.75284
C          6.24758         5.01822         0.64618
C          7.50285         5.71279         0.46267
C          8.70623         4.99548         0.32532
C         -7.34440         7.12164        -0.87683
C         -6.15358         7.81664        -0.86599
C         -4.88636         7.08555        -0.63732
C         -3.60116         7.81358        -0.50324
C         -2.46343         7.16611        -0.08556
C         -1.15783         7.79028        -0.35748
C          0.10847         7.05084         0.00350
C          1.35526         7.81561         0.09059
C          2.55595         7.10435         0.39617
C          3.80787         7.82341         0.39302
C          5.02998         7.13524         0.55213
C          6.27842         7.84262         0.44063
C          7.48182         7.13791         0.44118
C         -6.02172         9.21890        -1.18436
C         -4.81204         9.86251        -1.19653
C         -3.55570         9.21783        -0.87398
C         -2.35269         9.91601        -0.81358
C         -1.10665         9.25530        -0.54518
C          0.12561         9.89088        -0.49924
C          1.35473         9.19837        -0.19444
C          2.59659         9.89782        -0.14217
C          3.79704         9.23703         0.13347
C          5.05763         9.93975         0.12923
C          6.23992         9.27551         0.27668
C        -10.65610        -0.66758        -1.62591
C         -9.55506        -1.44626        -1.11753
C         -8.40199        -0.71336        -0.55847
C         -7.34781        -1.44056         0.17837
C         -6.27954        -0.77457         0.72603
C         -5.04220        -1.47139         1.07787
C         -3.85711        -0.76367         1.15146
C         -2.54307        -1.47652         1.18806
C         -1.38849        -0.71109         0.54517
C         -0.08520        -1.46285         0.39790
C          1.10299        -0.75588         0.21805
C          2.30848        -1.41643        -0.26402
C          3.49534        -0.72966        -0.36837
C          4.71492        -1.33885        -0.96759
C          5.96908        -0.47494        -1.20164
C          7.26153        -1.29919        -1.36470
C          8.56600        -0.54718        -1.24329
C          9.87798        -1.32958        -1.22724
C         11.11267        -0.62134        -0.78838
C         -9.56272        -2.82950        -1.11827
C         -8.52067        -3.60854        -0.52342
C         -7.46857        -2.91077         0.25914
C         -6.34570        -3.68258         0.86684
C         -5.06405        -2.97791         1.36283
C         -3.78762        -3.70133         0.94498
C         -2.51703        -2.96957         1.09637
C         -1.28508        -3.61819         0.59763
C         -0.14718        -2.88707         0.25572
C          1.00973        -3.60845        -0.33267
C          2.22357        -2.82881        -0.83437
C          3.53459        -3.59430        -0.58771
C          4.76697        -2.85799        -0.96223
C          6.07064        -3.55521        -0.87976
C          7.29710        -2.81580        -1.27076
C          8.60578        -3.47933        -1.01699
C          9.79380        -2.78297        -1.05521
C         -8.52086        -4.99704        -0.58230
C         -7.45859        -5.80323        -0.08661
C         -6.30808        -5.19949         0.70471
C         -4.99403        -5.71293         0.16322
C         -3.74896        -5.01105         0.53876
C         -2.49234        -5.74707         0.42238
C         -1.29710        -5.04927         0.52936
C          0.01690        -5.75251         0.71836
C          1.11123        -5.07478        -0.07753
C          2.43283        -5.73950        -0.06021
C          3.61313        -4.92442        -0.26583
C          4.93948        -5.56446         0.10933
C          6.14028        -4.85831        -0.47671
C          7.40841        -5.57787        -0.51527
C          8.59055        -4.88477        -0.73912
C         -7.42132        -7.18077        -0.30412
C         -6.21795        -7.93311        -0.16102
C         -4.94631        -7.17441        -0.15045
C         -3.66603        -7.88877        -0.00604
C         -2.48288        -7.18675         0.22480
C         -1.21310        -7.90619         0.23487
C         -0.02466        -7.21942         0.40281
C          1.28885        -7.89705         0.44239
C          2.51134        -7.10168         0.16328
C          3.77840        -7.79385         0.00601
C          4.95347        -7.06286        -0.11778
C          6.21463        -7.72926        -0.30768
C          7.39864        -7.00311        -0.40687
C         -6.14373        -9.32588        -0.23326
C         -4.90590        -9.99633        -0.22567
C         -3.67948        -9.31700        -0.11193
C         -2.42137       -10.01144        -0.09670
C         -1.22688        -9.34759         0.04022
C          0.05407       -10.15955        -0.04291
C          1.33603        -9.38869         0.24701
C          2.61857        -9.97506        -0.17895
C          3.78477        -9.24113        -0.17695
C          5.06075        -9.88238        -0.40981
C          6.21888        -9.16813        -0.43153
O         -0.43911         7.02175        -1.40282
O          2.66385         3.12784        -1.04203
H          1.88690         2.76928        -1.52248
O          0.40020        -5.61175         2.12030
H         -0.21226        -6.15113         2.66317
O         -6.47316         5.51166         1.69728
H         -5.62107         5.38460         2.17098
O         -5.09223        -3.07268         2.81416
H         -5.28696        -4.00865         3.04208
O         -7.75377         0.24465        -1.51497
O          4.50525         0.44432         1.49901
O         -1.80768        -0.40217        -0.81359
H         -1.52149        -1.12426        -1.41120
O         -8.64854         1.46674         1.82566
H         -8.15231         1.33301         2.66575
O         -6.38352        -5.72097         2.06616
H         -7.16431        -5.28570         2.47939
O          7.21003        -2.11689        -2.56063
O         -7.49463        -3.33408         1.70088
O         -6.58533         0.45680         2.64008
H         -5.80067        -0.02141         2.98510
O          3.61284         4.21841         2.23127
O          5.06203        -5.37527         1.56174
H          4.33125        -5.87206         1.98852
O          5.75311         0.13606        -2.50209
H          5.76720        -0.60084        -3.15628
O          7.10867         3.34811        -1.53051
O          1.40957        -8.82097         1.60056
O          0.61647        -4.60523        -1.37080
O          2.03948        -2.66642        -2.25806
H          1.68387        -3.52028        -2.59546
O          0.15149       -10.74726        -1.35299
H         -0.01557       -10.05254        -2.02235
O         -4.79444         5.91530        -1.58055
O          0.29502         2.67692         2.77683
H          0.01034         3.53642         3.17438
O         -3.44120         5.78343         1.72419
O         -9.32922         4.03736         1.42626
H         -8.64085         4.59686         1.84925
O          9.58012         0.88394         1.46409
H          8.87121         1.44485         1.84903
O         -1.06985         0.34108         2.67639
H         -0.59830         1.11176         3.08138
O         -1.37509         4.52217         2.28944
O         -6.74138         2.99731        -0.98349
O          9.37293        -0.71751        -2.45858
O         -2.29298        -2.24634         2.38164
O         -4.97337        -6.12945        -1.22781
O          4.51205        -2.10279        -2.19459
O          6.00555         2.89688         1.93449
O         -2.93644         3.05632        -0.58926
O         -5.11220         2.49843         2.18604
H         12.07323        -1.13271        -0.95778
H         12.02369         1.14716        -0.06145
H         10.84874         3.28882         0.29613
H          9.65887         5.54836         0.31535
H          8.43061         7.68526         0.33492
H          7.19260         9.82379         0.23864
H          5.04902        11.02853        -0.02632
H          2.61056        10.97778        -0.35186
H          0.17830        10.97428        -0.68621
H         -2.34362        10.99791        -1.01554
H         -4.78042        10.93308        -1.44904
H         -6.93491         9.78478        -1.42234
H         -8.26551         7.64598        -1.17664
H         -9.48151         5.46439        -1.10990
H        -10.83308         3.31117        -0.88193
H        -11.64333         1.21058        -1.84515
H        -11.47491        -1.20972        -2.12251
H        -10.41090        -3.36272        -1.57455
H         -9.32980        -5.49936        -1.13560
H         -8.32109        -7.69041        -0.68372
H         -7.07051        -9.91443        -0.29562
H         -4.89610       -11.09384        -0.29455
H         -2.42224       -11.10437        -0.22362
H         -0.01062       -11.01669         0.67820
H          2.64369       -11.04432        -0.43623
H          5.07792       -10.97464        -0.53659
H          7.18292        -9.67565        -0.58177
H          8.35191        -7.54182        -0.51603
H          9.54921        -5.42403        -0.71127
H         10.72263        -3.31535        -0.79741
