         244
 CSIRO Nanostructure Databank - Neutral Graphene Oxide Data Set
C          1.93258         2.44284         2.66562
C          1.76155         3.71846         2.09972
C          3.12374         1.77263         2.49371
C          2.76302         4.30803         1.32622
C          1.39850         6.40396         1.04044
C          1.30120         7.75954         0.71382
C          2.60361         5.69752         0.88598
C          2.40625         8.47975         0.24690
C          1.14209        10.73049         0.29493
C          1.12456        12.06871         0.17228
C          2.30076         9.91393        -0.14282
C          2.29891        12.85740        -0.26151
C          1.17936        15.14267         0.47903
C          1.28080        16.48602         0.57826
C          2.32383        14.34690        -0.03833
C          2.52635        17.19207         0.28581
C          2.58459        18.59624         0.18311
C          4.16910         2.28034         1.66511
C          3.97031         3.57288         1.01770
C          5.37875         1.52896         1.72011
C          4.96171         4.23110         0.22985
C          3.72439         6.39995         0.36330
C          3.64368         7.79739         0.07941
C          4.91959         5.67065         0.04541
C          4.83689         8.50718        -0.30067
C          3.56290        10.65554        -0.51509
C          3.60836        12.14269        -0.42638
C          4.84952         9.92421        -0.48652
C          4.77793        12.80834        -0.62600
C          3.69821        14.93857         0.21553
C          3.71125        16.45029         0.12012
C          4.77283        14.33067        -0.72151
C          4.94001        17.10754        -0.06405
C          3.79389        19.24036        -0.08935
C          4.98627        18.51107        -0.20698
C          6.42082         1.59157         0.78073
C          6.08957         3.55566        -0.34003
C          7.74866         1.17105         0.94806
C          7.23124         4.20720        -0.78417
C          6.03298         6.36778        -0.43999
C          6.04122         7.78884        -0.49026
C          7.21893         5.67587        -1.03750
C          7.28151         8.48344        -0.67856
C          6.04404        10.60507        -0.69368
C          6.04040        12.07072        -1.06484
C          7.29195         9.89968        -0.71230
C          7.33290        12.73485        -0.63637
C          6.09732        14.95218        -0.34518
C          6.16931        16.30546        -0.08056
C          7.29905        14.14117        -0.23435
C          7.43252        17.00335        -0.03100
C          6.31636        19.17890        -0.49268
C          7.41396        18.47459         0.32142
C          8.77876         1.55513         0.04175
C          8.45906         3.52508        -1.06607
C         10.14444         1.45316         0.26793
C          9.68854         4.16436        -1.08503
C          8.53901         6.33788        -0.74693
C          8.52363         7.76146        -0.68247
C          9.74573         5.59992        -0.88430
C          9.74298         8.47575        -0.64261
C          8.54036        10.60295        -0.77368
C          8.53789        12.05444        -0.66671
C          9.75163         9.87844        -0.72303
C          9.82211        12.75844        -0.57691
C          8.64194        14.91470        -0.26224
C          8.59812        16.36010        -0.38113
C          9.86492        14.17719        -0.57733
C          9.71654        17.15336        -1.02731
C          8.78113        19.09153         0.23732
C          9.90145        18.44659        -0.25348
C         11.15157         2.08836        -0.53965
C         10.91296         3.33461        -1.42146
C         12.38396         1.46874        -0.62235
C         12.21738         4.20006        -1.52519
C         10.99460         6.27773        -0.81347
C         10.97622         7.68259        -0.27035
C         12.22831         5.64107        -1.09718
C         12.25982         8.43236        -0.43788
C         11.07711        10.57886        -0.91422
C         11.04329        12.06273        -0.63746
C         12.20626         9.90620        -0.12980
C         12.26801        12.76449        -0.55911
C         11.06343        14.89467        -0.74420
C         10.99531        16.28915        -1.38170
C         12.28234        14.17948        -0.68636
C         12.37359        17.08506        -1.31799
C         11.16552        19.07358        -0.20841
C         12.35156        18.46911        -0.67569
C         13.56748         2.05038        -1.18400
C         13.54409         3.48479        -1.58661
C         14.76069         1.36376        -1.08373
C         14.89374         4.23015        -1.63497
C         13.44516         6.33601        -0.92328
C         13.45709         7.74950        -0.55667
C         14.76325         5.70267        -1.18587
C         14.69324         8.47861        -0.29545
C         13.51207        10.63403        -0.33536
C         13.52266        12.02450        -0.41648
C         14.72529         9.87186        -0.22090
C         14.76174        12.74951        -0.26018
C         13.54122        14.91551        -0.60432
C         13.53774        16.28457        -0.72524
C         14.77114        14.18152        -0.29153
C         14.70703        17.08027        -0.18918
C         13.54481        19.16429        -0.59473
C         14.85524        18.47168        -0.84835
C         16.03779         2.02937        -1.04972
C         16.05463         3.46255        -1.02429
C         17.21049         1.31313        -0.78366
C         17.22591         4.11720        -0.67701
C         15.97539         6.37306        -0.61011
C         15.89482         7.68806         0.15494
C         17.18251         5.54841        -0.31079
C         17.21682         8.44029         0.02777
C         15.97872        10.59090        -0.04110
C         15.96267        12.02698        -0.01487
C         17.19548         9.89143         0.05198
C         17.17904        12.72626         0.28880
C         15.97960        14.88337        -0.08803
C         16.00671        16.32258        -0.13780
C         17.19207        14.17660         0.25620
C         17.17865        17.04030        -0.00291
C         16.04232        19.19849        -0.26941
C         17.18254        18.50275         0.04368
C         18.43358         1.97565        -0.51358
C         18.44393         3.40270        -0.43353
C         19.64845         1.26686        -0.28257
C         19.65899         4.08619        -0.15091
C         18.43955         6.28565        -0.00875
C         18.40823         7.76673        -0.01167
C         19.76075         5.59636        -0.27126
C         19.73898         8.47629        -0.12476
C         18.43253        10.59430         0.26647
C         18.37033        12.00695         0.49008
C         19.66362         9.90831         0.36120
C         19.56314        12.68390         1.00368
C         18.37904        14.88575         0.45582
C         18.45333        16.31938         0.14156
C         19.55891        14.23315         1.01699
C         19.70176        17.09831         0.54215
C         18.36981        19.19297         0.49755
C         19.54762        18.54943         0.80253
C         20.81692         1.94397        -0.00302
C         20.84155         3.36553         0.05292
C         22.08650         4.09057         0.30386
C         20.81384         6.19474         0.67436
C         20.90533         7.69934         0.46779
C         22.10954         5.41689         0.54727
C         22.01768         8.39826         0.85028
C         20.88189        10.57703         0.71022
C         20.86766        12.00846         0.98544
C         22.04864         9.82131         0.87490
C         22.00650        12.75710         1.23052
C         20.85422        14.93309         1.12858
C         20.84885        16.38572         1.15134
C         21.99520        14.17521         1.32896
C         21.85307        17.13201         1.73330
C         20.66400        19.24078         1.38887
C         21.77297        18.55637         1.81486
O         17.65564         5.69809         1.09591
O          8.05282        14.42607         0.99472
O          6.05770         2.16320        -0.45197
O         12.83282         3.87902        -2.81993
O         15.66537         6.54406        -2.01417
O          8.38839         2.13227        -1.18074
O          2.06141        13.81089        -1.37877
O         19.27487        13.44306         2.22294
O          2.64908        10.15977        -1.55774
O         19.47572        16.70079        -0.85679
O          4.48905        14.70558        -2.08496
H          3.58761        14.35815        -2.29553
O         10.82809        15.86626        -2.76564
H         10.10830        16.42407        -3.15472
O         15.15411        18.35350        -2.25566
H         14.33809        18.01999        -2.70964
O         11.87129        10.05085         1.29558
H         12.68241         9.84616         1.80917
O         20.18624         5.88761        -1.62016
H         19.48484         5.60419        -2.24256
O         10.61969         2.79232        -2.73042
H         11.47715         2.72523        -3.21441
O         12.74948        17.34162        -2.69929
H         12.30189        16.63753        -3.23825
O          4.02140        14.56287         1.58063
H          4.87872        14.97988         1.81437
O         20.35130         6.01827         2.04123
H         20.02470         5.09770         2.13184
O         10.83893         7.51139         1.20500
H         10.95344         8.41809         1.58706
O         14.35586        17.36356         1.21149
H         14.32697        16.50725         1.68875
O         15.66438         7.41285         1.56378
H         16.41744         6.84378         1.86357
O          6.03849        12.11973        -2.52974
H          5.19650        11.72310        -2.83985
O          6.98476        18.57440         1.70788
H          7.63071        18.08518         2.25900
O          9.17497        17.60404        -2.31232
H          8.33015        18.09561        -2.14666
O          7.04083         5.82198        -2.50670
H          7.76937         5.32371        -2.93715
O         11.42834        10.42545        -2.31920
H         10.75114        10.88843        -2.85556
O         20.00503         8.58543        -1.57733
H         20.92716         8.90364        -1.67927
O         15.29125         4.25205        -3.02847
H         14.50346         4.52931        -3.54907
O          6.66658        19.02890        -1.88023
H          5.88018        19.22286        -2.43056
H          1.13241         2.00658         3.27899
H          0.83214         4.26155         2.31364
H          3.27699         0.80020         2.98354
H          0.49482         5.89686         1.40319
H          0.32705         8.25418         0.82845
H          0.24841        10.21751         0.67867
H          0.21471        12.62205         0.44674
H          0.21584        14.64657         0.66621
H          0.40895        17.08451         0.88246
H          1.66547        19.18728         0.30391
H          5.48460         0.82563         2.56110
H          3.81706        20.33624        -0.18516
H          8.03824         0.70551         1.90089
H          6.26488        20.27257        -0.23088
H         10.49199         0.82510         1.10347
H          8.91025        20.07084         0.72510
H         12.50374         0.48231        -0.14673
H         11.23746        20.07049         0.25397
H         14.73318         0.30060        -0.79809
H         13.53845        20.18862        -0.18752
H         17.18155         0.21337        -0.77665
H         16.05060        20.29961        -0.26676
H         19.64507         0.16879        -0.34034
H         18.30017        20.28130         0.64816
H         21.75056         1.38766         0.16484
H         23.02280         3.51141         0.29800
H         23.06652         5.91110         0.77068
H         22.90689         7.86697         1.21983
H         22.98421        10.30966         1.17761
H         22.98655        12.26210         1.27614
H         22.96097        14.68169         1.46837
H         22.72590        16.63182         2.17606
H         20.60120        20.33174         1.51203
H         22.60864        19.10173         2.27522
