         404
 CSIRO Nanostructure Databank - Neutral Graphene Oxide Data Set
C          1.12337         3.65699         1.41278
C         -0.08393         4.37893         1.46056
C          1.07598         6.42445         0.77726
C         -0.11356         5.71975         1.12358
C          1.03983         7.81583         0.44966
C         -0.14975         8.59445         0.33855
C          1.04677        10.55026        -0.62326
C         -0.16561         9.90249        -0.09288
C          1.10628        11.99409        -1.00357
C          0.00131        12.54526        -1.66684
C          1.31267        14.50922        -2.12954
C          0.12206        13.79229        -2.27145
C          1.33794        16.78691        -2.14159
C          0.14304        17.51500        -2.23327
C          1.18659        19.30488        -0.97342
C          0.04793        18.73822        -1.59216
C          1.15244        20.66757        -0.49838
C         -0.07013        21.38359        -0.41171
C          1.11442        23.44918         0.10023
C         -0.09016        22.72662        -0.11361
C          1.10586        24.88137         0.25870
C         -0.09304        25.63524         0.18699
C          1.12253        27.74291         0.41902
C         -0.08429        27.01294         0.27051
C          1.10822        29.20618         0.40485
C         -0.10593        29.96162         0.33332
C          1.11469        32.08532         0.38537
C         -0.10284        31.33522         0.36592
C          1.15444        33.50658         0.40866
C         -0.05793        34.31286         0.40523
C          1.25064        36.33880         0.99866
C         -0.02925        35.64808         0.60530
C          1.27015        37.80904         0.68548
C          3.54428         3.43281         0.85862
C          2.30953         4.28882         1.04438
C          3.55583         6.29893         0.36298
C          2.31748         5.67930         0.75220
C          3.50872         7.70626        -0.06152
C          2.34938         8.55605         0.41601
C          3.58849        10.62148        -0.30941
C          2.33185         9.83670        -0.39458
C          3.49362        12.09044        -0.26196
C          2.29663        12.74763        -0.84578
C          3.59840        14.93464        -1.11258
C          2.39373        14.09005        -1.31938
C          3.62126        16.36764        -1.16849
C          2.44521        17.20914        -1.38595
C          3.61502        19.21782        -0.51457
C          2.40776        18.56512        -0.92102
C          3.60103        20.59983        -0.17962
C          2.36370        21.33019        -0.16164
C          3.56976        23.42827         0.41153
C          2.34471        22.73429         0.11960
C          3.54504        24.83604         0.60366
C          2.33533        25.57591         0.46182
C          3.58562        27.72151         0.68446
C          2.33810        27.01576         0.53121
C          3.55484        29.18252         0.75558
C          2.31157        29.91732         0.47156
C          3.57408        32.04287         0.21900
C          2.34650        31.34963         0.39252
C          3.61904        33.44919         0.12436
C          2.40756        34.18607         0.35131
C          3.65073        36.29035         0.20671
C          2.45877        35.60726         0.46365
C          3.68025        37.74885         0.23055
C          2.41665        38.45278         0.39165
C          6.02792         3.51579         0.65695
C          4.83030         4.19614         0.63705
C          6.02561         6.30920         0.09704
C          4.77815         5.60465         0.33882
C          6.03391         7.69291        -0.17219
C          4.79790         8.45713        -0.35223
C          6.03021        10.69360        -0.18408
C          4.79480         9.95409        -0.24249
C          6.05377        12.08784        -0.25396
C          4.80139        12.86782        -0.28674
C          6.06397        14.92425        -0.84752
C          4.81652        14.26442        -0.77715
C          6.08989        16.36248        -0.88267
C          4.84146        17.07082        -0.87232
C          6.07568        19.16518        -0.37240
C          4.84756        18.47688        -0.59386
C          6.07184        20.55493        -0.01453
C          4.82372        21.29223         0.12459
C          6.04423        23.34879         0.83375
C          4.79037        22.66539         0.45849
C          6.08364        24.84881         0.99394
C          4.77658        25.58870         0.94269
C          6.07786        27.74767         0.69610
C          4.81106        27.05714         0.76266
C          6.11894        29.12858         0.46236
C          4.88384        29.90699         0.58822
C          6.10426        31.95454        -0.33142
C          4.80691        31.26255        -0.01113
C          6.10987        33.43967        -0.32345
C          4.85064        34.15592        -0.14588
C          6.04422        36.32789        -0.46935
C          4.83252        35.56156        -0.14116
C          6.10487        37.77290        -0.17140
C          4.86032        38.44486         0.07593
C          8.51856         3.46739         0.45890
C          7.28125         4.17578         0.39779
C          8.52299         6.25429        -0.13338
C          7.24996         5.56211         0.13103
C          8.53009         7.72102         0.12920
C          7.29198         8.43515        -0.29740
C          8.56972        10.62666         0.10987
C          7.30302         9.93662        -0.28003
C          8.55735        12.13352        -0.04267
C          7.28610        12.81888        -0.36964
C          8.58140        14.84466        -0.93616
C          7.28980        14.17256        -0.68551
C          8.59486        16.37177        -0.98385
C          7.31217        17.07738        -0.78586
C          8.57257        19.17690        -0.43025
C          7.32303        18.46952        -0.52888
C          8.53862        20.55084        -0.13534
C          7.30757        21.21725         0.10727
C          8.55009        23.42513         0.31602
C          7.32526        22.61338         0.58970
C          8.57177        24.89541         0.45622
C          7.32143        25.61896         0.73383
C          8.59394        27.71966         0.50793
C          7.32907        26.99976         0.65999
C          8.60665        29.11074         0.33081
C          7.35137        29.83949         0.21855
C          8.62368        31.89407        -0.31980
C          7.35194        31.19927        -0.08669
C          8.61638        33.41253        -0.45081
C          7.31348        34.10939        -0.36766
C          8.61677        36.28719        -0.27836
C          7.36558        35.56449        -0.53963
C          8.57845        37.70759        -0.26922
C          7.32369        38.41843        -0.20991
C         11.00574         3.41982         0.44207
C          9.77822         4.08686         0.31401
C         11.08152         6.28649         0.21681
C          9.82681         5.52719        -0.01826
C         11.09814         7.69268         0.19578
C          9.82909         8.44245         0.24775
C         11.06256        10.54372        -0.10685
C          9.85543         9.89368         0.02525
C         11.05830        11.98441        -0.43136
C          9.83135        12.78885        -0.31985
C         11.07390        14.87461        -0.64844
C          9.85495        14.14771        -0.64849
C         11.06216        16.28889        -0.62027
C          9.86913        17.04283        -0.68465
C         11.06052        19.15774        -0.37856
C          9.85219        18.47122        -0.50110
C         11.10429        20.61973        -0.28797
C          9.80098        21.32335        -0.09437
C         11.07560        23.40851         0.82720
C          9.81018        22.67109         0.55114
C         11.07716        24.88968         0.70731
C          9.86569        25.59454         0.63035
C         11.09483        27.70830         0.55038
C          9.84959        27.01089         0.56887
C         11.09215        29.13719         0.43802
C          9.85886        29.82427         0.28207
C         11.07037        31.97006         0.08375
C          9.87534        31.22883         0.05582
C         11.05240        33.41972         0.00583
C          9.85824        34.14823        -0.13472
C         11.05737        36.32285         0.13130
C          9.83805        35.59066        -0.07331
C         11.04400        37.76541        -0.08741
C          9.79890        38.40588        -0.25763
C         13.47285         3.40939         0.37281
C         12.25655         4.11153         0.37652
C         13.52621         6.26318         0.46587
C         12.28532         5.55877         0.34394
C         13.55205         7.71460         0.41289
C         12.32040         8.42594         0.21488
C         13.56772        10.55751         0.00320
C         12.32291         9.84273         0.02669
C         13.61469        11.96359        -0.21230
C         12.37206        12.70178        -0.52078
C         13.61728        14.82471        -0.85907
C         12.36353        14.18710        -0.23161
C         13.64530        16.29911        -0.56353
C         12.35036        16.95682        -0.31530
C         13.61902        19.16642        -0.46599
C         12.33701        18.45287        -0.19020
C         13.64534        20.66973        -0.29766
C         12.37069        21.25965         0.20463
C         13.62688        23.44948         0.55493
C         12.38015        22.66921         0.70234
C         13.57013        24.82290         0.55124
C         12.32208        25.57234         0.63271
C         13.58834        27.71875         0.61375
C         12.32589        26.98988         0.57611
C         13.56915        29.17259         0.57260
C         12.32368        29.86494         0.42446
C         13.53973        32.01150         0.28198
C         12.31078        31.28155         0.27978
C         13.52841        33.44472         0.26987
C         12.28263        34.13466         0.19389
C         13.48878        36.15811         0.68826
C         12.24938        35.55329         0.33528
C         13.47491        38.28312         0.16541
C         12.20473        38.58290        -0.33559
C         15.95553         3.40765         0.32992
C         14.71826         4.09273         0.39444
C         15.98798         6.19933         0.79346
C         14.71976         5.52040         0.51371
C         15.99091         7.71434         0.87563
C         14.75957         8.43678         0.50932
C         16.01943        10.57587         0.26909
C         14.79513         9.85172         0.26498
C         16.05540        11.96307         0.00762
C         14.83506        12.68006        -0.20402
C         16.07504        14.80716        -0.29740
C         14.87804        14.10767        -0.41172
C         16.10439        16.26934        -0.36372
C         14.84895        16.99346        -0.42962
C         16.08207        19.14779        -0.20778
C         14.88051        18.43175        -0.33715
C         16.10304        20.58957        -0.00303
C         14.90753        21.33186         0.04581
C         16.10543        23.39650         0.57927
C         14.89646        22.72273         0.40707
C         16.04042        24.86565         0.98188
C         14.86059        25.56203         0.28917
C         16.06103        27.71675         0.85560
C         14.78718        27.02552         0.64218
C         16.06063        29.22915         0.75912
C         14.77290        29.90283         0.52272
C         16.02085        32.03170         0.27530
C         14.77061        31.31289         0.34656
C         16.01236        33.45925         0.29007
C         14.77218        34.15918         0.32182
C         15.95763        36.43750         0.49629
C         14.73159        35.58237         0.47736
C         15.93788        37.88123         0.06663
C         14.75957        38.62872        -0.27375
C         18.42418         3.38771         0.07273
C         17.19878         4.09571         0.30513
C         18.47441         6.21623         0.37608
C         17.25021         5.49899         0.50584
C         18.53322         7.64689         0.46228
C         17.31521         8.41451         0.79853
C         18.56295        10.54352         0.13213
C         17.30475         9.89662         0.54897
C         18.55459        11.95226        -0.06379
C         17.31035        12.67040        -0.06614
C         18.55937        14.78350        -0.17865
C         17.31847        14.08099        -0.15405
C         18.56725        16.26102         0.12809
C         17.29116        16.97794        -0.22857
C         18.54665        19.11185        -0.08810
C         17.31526        18.41460        -0.18345
C         18.55518        20.51462         0.17846
C         17.35210        21.25237         0.25101
C         18.56452        23.39071         0.62825
C         17.35670        22.68837         0.49834
C         18.57962        24.85372         0.80703
C         17.32784        25.61723         0.72500
C         18.55382        27.74731         0.36710
C         17.33890        26.98769         0.64475
C         18.48895        29.17202         0.13627
C         17.30825        29.90603         0.33978
C         18.49830        32.08116         0.08941
C         17.24372        31.32065         0.18830
C         18.43072        33.53758        -0.11583
C         17.24992        34.19756         0.13407
C         18.46002        36.40768        -0.20701
C         17.26129        35.68147         0.25513
C         18.42062        37.82725        -0.23369
C         17.16218        38.50651        -0.15931
C         19.61593         4.06038        -0.01746
C         20.88512         6.19134        -0.07392
C         19.66980         5.48364         0.09904
C         20.91315         7.57054        -0.04092
C         19.73547         8.33478         0.20304
C         20.96414        10.51230        -0.15337
C         19.75706         9.79983         0.08901
C         20.97848        11.88484        -0.30031
C         19.78280        12.64922        -0.25025
C         20.99121        14.85253        -0.46042
C         19.77399        14.09165        -0.28859
C         20.99637        16.22103        -0.51959
C         19.80799        16.99675        -0.32269
C         21.00776        19.17237        -0.43080
C         19.79496        18.39109        -0.28787
C         21.05248        20.48046        -0.09131
C         19.85398        21.17476         0.41746
C         21.06063        23.48420         0.26526
C         19.86342        22.69888         0.64403
C         21.05055        24.82557         0.15428
C         19.88335        25.63002         0.57890
C         20.98122        27.80097        -0.06437
C         19.78079        27.06743         0.25168
C         20.96025        29.11988        -0.36606
C         19.66949        29.87009        -0.52439
C         20.94733        32.15023        -0.59528
C         19.78174        31.34408        -0.13538
C         20.87371        33.47609        -0.78095
C         19.56713        34.23219        -0.83210
C         20.79953        36.46478        -0.83612
C         19.64383        35.72288        -0.55323
C         20.78650        37.86658        -0.78131
C         19.60772        38.54662        -0.51359
O         13.45581        37.41677         1.27709
O          1.70519         9.72124        -1.69563
O          1.44460        15.64427        -2.93963
O          9.23266         5.84230        -1.34528
O         19.42649        31.66533         1.22963
O          5.39281        25.21909         2.23784
O         11.73044        12.27412        -1.74371
O         12.45915        21.53027         1.63115
O          3.92873         7.94317        -1.43004
O         17.44719         9.35283         1.92083
O         19.43083        25.29169         1.93111
O          6.78811        22.71985         1.94485
O          4.00513        12.72025         0.95315
O         10.48661        21.35059        -1.40303
O         15.91428         6.91138         2.09472
O          4.27066        29.78250         1.90333
O          8.47466        11.46651         1.29212
O         20.03520        21.75453         1.75438
O          8.50442        24.20333        -0.91265
O         16.11164        28.55570         2.06233
O          8.61338        15.56260        -2.21180
O          6.65494        35.99657        -1.75551
O          8.71220        32.55571        -1.64030
O         16.85331        36.13508         1.60427
O          8.99368         8.07595         1.46243
O         13.55227        20.07059        -1.62395
O          5.27546        31.33293        -1.39461
O         12.35975        17.62749         1.02482
O          7.44391         9.20594        -1.54851
O         10.26538        22.83418         1.92101
O         12.47015        14.29976         1.20817
H         12.47700        15.25062         1.45457
O         13.49841        14.64119        -2.29707
H         14.28791        15.03380        -2.72383
O          1.32393        36.24328         2.46860
H          1.28711        35.29040         2.69859
O         18.61692        16.32133         1.60690
H         19.44620        15.87906         1.88835
O          3.68726         2.51187         1.95101
H          3.86840         3.02635         2.76386
O          2.64328         8.95069         1.79357
H          2.45648         8.18731         2.37943
O         15.78273        24.91232         2.40507
H         16.60061        24.65362         2.87945
O         19.37817        29.90274        -1.96701
H         19.37599        28.97748        -2.29116
O         15.13161        25.49016        -1.14576
H         14.35110        25.84598        -1.62040
O         19.15873        34.16247        -2.25385
H         19.85718        34.60563        -2.78127
H          1.13596         2.58383         1.64823
H         -1.01271         3.86615         1.74668
H         -1.07198         6.25512         1.15101
H         -1.11290         8.13368         0.60478
H         -1.11455        10.45827        -0.10081
H         -0.91823        11.95675        -1.78630
H         -0.68025        14.19718        -2.90101
H         -0.69183        17.11662        -2.82346
H         -0.89106        19.30162        -1.65815
H         -1.02449        20.87022        -0.58606
H         -1.05904        23.23980        -0.06593
H         -1.05687        25.12867         0.04923
H         -1.04164        27.54448         0.19531
H         -1.07301        29.44323         0.29480
H         -1.06571        31.86363         0.35690
H         -1.01985        33.81856         0.20767
H         -0.96252        36.23087         0.60042
H          0.32960        38.36939         0.79640
H          3.36597         2.79617        -0.05428
H          2.41874        39.54299         0.23945
H          6.02921         2.43930         0.88343
H          4.85795        39.54332         0.14421
H          8.48745         2.39019         0.68330
H          7.35994        39.50995        -0.07371
H         11.01654         2.33075         0.60024
H          9.78223        39.50027        -0.36813
H         13.46485         2.30965         0.35743
H         12.07010        39.46201        -0.98407
H         15.95436         2.31221         0.23091
H         14.88281        39.49128        -0.94667
H         18.39043         2.29549        -0.04859
H         17.15855        39.58137        -0.39769
H         20.54964         3.51133        -0.20769
H         21.80923         5.62811        -0.26841
H         21.86951         8.07912        -0.21901
H         21.92155         9.97654        -0.19396
H         21.94477        12.38553        -0.44765
H         21.94010        14.31859        -0.60255
H         21.94734        16.73166        -0.72608
H         21.93021        18.67609        -0.76217
H         22.01190        21.01437        -0.12240
H         21.98373        22.94000         0.02127
H         21.95152        25.33922        -0.21104
H         21.94941        27.28448        -0.00342
H         21.90325        29.63976        -0.58547
H         21.92221        31.64753        -0.69162
H         21.78726        34.01269        -1.07987
H         21.73947        35.95699        -1.09294
H         21.71056        38.42404        -0.98817
H         19.58421        39.64555        -0.52232
