         620
 CSIRO Nanostructure Databank - Neutral Graphene Oxide Data Set
C         23.03876        27.31926         2.10835
C         23.01217        28.68333         2.07866
C         22.96424        31.59476         1.66797
C         22.95683        32.95895         1.53112
C         22.92107        35.90860         1.34833
C         22.91948        37.29403         1.24997
C         23.08784        39.98500         0.02084
C         23.17494        41.22753        -0.52909
C         23.05628        44.15572        -0.99988
C         23.05476        45.49232        -1.32185
C         25.36352        24.44388         1.53134
C         24.23668        25.16632         1.72879
C         25.47857        27.28298         1.96572
C         24.28407        26.59358         1.98223
C         25.53091        28.74787         2.31527
C         24.21549        29.46832         2.03257
C         25.42331        31.64101         1.95506
C         24.17330        30.85287         1.88345
C         25.39781        33.08302         1.64281
C         24.16096        33.74455         1.52168
C         25.36416        35.90797         1.36037
C         24.13365        35.18321         1.39276
C         25.35179        37.33639         1.25379
C         24.11753        38.02246         1.17792
C         25.38940        40.18910         0.89823
C         24.04934        39.53367         1.09052
C         25.43773        41.53728         0.38643
C         24.27791        42.10137        -0.26067
C         25.47082        44.23515        -0.60620
C         24.26890        43.49133        -0.63737
C         25.48524        45.60832        -0.94812
C         24.26062        46.24839        -1.30719
C         25.45531        48.33717        -1.66023
C         24.27663        47.62486        -1.65667
C         28.05230        22.96496         1.31157
C         27.85731        24.38325         1.00704
C         26.69046        25.07455         1.64185
C         27.94146        27.32683         1.29989
C         26.75741        26.57551         1.80181
C         27.86588        28.76907         1.27213
C         26.74402        29.43589         1.70904
C         27.92650        31.66339         1.39622
C         26.74591        30.90382         1.82400
C         27.87890        33.07843         1.43522
C         26.62664        33.78812         1.53985
C         27.83927        35.93371         1.36061
C         26.60913        35.20784         1.41433
C         27.82474        37.36474         1.32720
C         26.59357        38.06635         1.26380
C         27.83465        40.22592         1.22602
C         26.59057        39.49821         1.14600
C         27.72419        41.74293         1.35848
C         26.62643        42.26682         0.46861
C         27.94371        44.38459        -0.08801
C         26.76008        43.50512        -0.37263
C         27.93775        45.73092        -0.53191
C         26.71054        46.36254        -0.94729
C         27.93491        48.48856        -1.31042
C         26.69720        47.72941        -1.30819
C         27.97456        49.84540        -1.69966
C         30.36764        23.08048         0.50963
C         29.22256        22.35322         1.00306
C         30.36940        24.48463         0.51625
C         29.09582        25.20214         0.67673
C         30.34878        27.37236         0.71745
C         29.10515        26.66489         0.91345
C         30.34982        28.79535         0.70273
C         29.01452        29.51632         0.61006
C         30.28292        31.68806         0.79473
C         29.09512        30.97629         1.00447
C         30.29462        33.09385         0.98005
C         29.08744        33.80297         1.24603
C         30.31137        35.94890         1.29143
C         29.07621        35.23322         1.30343
C         30.29460        37.38190         1.34704
C         29.06062        38.08660         1.32542
C         30.30953        40.26212         1.39785
C         29.02627        39.52946         1.32691
C         30.35318        41.76277         1.33118
C         29.07032        42.60949         1.35966
C         30.34417        44.50886         0.33910
C         29.11828        43.79085         0.40441
C         30.36425        45.85291        -0.13310
C         29.14658        46.48705        -0.51550
C         30.38476        48.59236        -0.95333
C         29.15496        47.86024        -0.92245
C         30.39341        49.94854        -1.37981
C         29.16556        50.55137        -1.73455
C         32.62343        20.26154        -0.54832
C         31.52553        20.98110        -0.02285
C         32.73218        23.13004        -0.35510
C         31.53501        22.35943         0.06155
C         32.80954        24.54576         0.10364
C         31.58832        25.22840         0.37684
C         32.80289        27.37787         0.39962
C         31.57505        26.65817         0.51396
C         32.79279        28.81256         0.42693
C         31.54353        29.50120         0.52481
C         32.79242        31.72136         0.46206
C         31.49258        30.98313         0.21486
C         32.76318        33.10044         0.66275
C         31.53108        33.82217         0.90946
C         32.80532        35.88639         1.42346
C         31.52732        35.20328         1.16354
C         32.80831        37.41935         1.46112
C         31.53241        38.12949         1.25949
C         32.76897        40.22665         0.77500
C         31.53748        39.49813         1.11846
C         32.81015        41.69970         0.75312
C         31.60551        42.42083         0.86160
C         32.82573        44.46804         0.37063
C         31.59310        43.80678         0.57699
C         32.81320        45.94159         0.29034
C         31.58288        46.60720        -0.15074
C         32.87014        48.66671        -0.69704
C         31.61411        47.94930        -0.56821
C         32.87466        50.02581        -1.16861
C         31.64972        50.67480        -1.47581
C         32.88590        52.69844        -2.05530
C         31.68893        52.02204        -1.90594
C         35.63743        19.66447        -3.65056
C         35.60287        20.47844        -2.51297
C         33.75724        20.90703        -0.98010
C         35.33149        22.92946        -0.51839
C         33.95415        22.37598        -0.85169
C         35.30721        24.45038         0.01720
C         34.03223        25.23161         0.07422
C         35.24062        27.42202         0.10175
C         34.03641        26.66588         0.20872
C         35.26155        28.83298         0.27953
C         34.02466        29.54631         0.36818
C         35.27624        31.66373         0.55435
C         34.03725        30.98896         0.42030
C         35.33851        33.12811         0.51146
C         34.00952        33.88202         0.56651
C         35.27580        35.93375         1.21911
C         34.06708        35.24772         1.08349
C         35.26996        37.36724         1.38520
C         34.09162        38.08353         1.27684
C         35.32422        40.27912         0.91270
C         34.09761        39.49352         0.86250
C         35.31856        41.62022         0.51342
C         34.04479        42.34470         0.45048
C         35.27008        44.44613        -0.12268
C         34.03445        43.75273         0.29777
C         35.35865        45.89862        -0.08945
C         34.13200        46.67897         0.11044
C         35.35498        48.68596        -0.65393
C         34.09853        48.03224        -0.45081
C         35.35843        50.06245        -1.05925
C         34.12071        50.71940        -1.32937
C         35.37866        52.76893        -1.96958
C         34.12520        52.07228        -1.78875
C         35.42118        54.10920        -2.42081
C         37.95913        20.24843        -3.99751
C         36.78232        19.61863        -4.43998
C         37.89812        21.12908        -2.86631
C         36.65160        21.37994        -2.19460
C         37.82692        22.73199        -0.59494
C         36.58320        22.31725        -1.08492
C         37.77749        24.68935         0.16386
C         36.54261        25.25503        -0.04167
C         37.81037        27.48974        -0.03446
C         36.48404        26.72037        -0.23286
C         37.74989        28.86771         0.45191
C         36.51318        29.53498         0.48049
C         37.70027        31.65332         1.02758
C         36.50245        30.95990         0.72730
C         37.74264        33.07634         1.11288
C         36.55409        33.83750         0.94193
C         37.77923        35.93366         1.38501
C         36.54563        35.23434         1.14778
C         37.81471        37.37677         1.46343
C         36.54192        38.09381         1.55753
C         37.84261        40.26297         1.01314
C         36.56442        39.62608         1.33592
C         37.82596        41.62606         0.56890
C         36.57778        42.28775         0.36072
C         37.84581        44.43162        -0.10539
C         36.59282        43.66449        -0.12778
C         37.83233        45.82170        -0.29565
C         36.57234        46.56388        -0.30651
C         37.84446        48.75304        -0.26216
C         36.56667        47.98341        -0.44488
C         37.83345        50.10370        -0.94388
C         36.60160        50.74962        -1.23681
C         37.85018        52.80964        -1.81472
C         36.60987        52.10856        -1.68572
C         37.85465        54.16738        -2.25925
C         36.61957        54.78285        -2.56696
C         40.62034        18.67550        -6.20595
C         39.36840        19.07479        -5.73270
C         40.43303        20.34332        -3.95719
C         39.24166        19.90084        -4.59664
C         40.37179        21.27747        -2.87988
C         39.11607        21.69939        -2.36002
C         40.28388        23.32136        -0.87939
C         39.08782        22.58474        -1.25097
C         40.25987        24.62329        -0.20758
C         39.05140        25.33707         0.00419
C         40.23250        27.40180         0.54674
C         39.05403        26.74235         0.16842
C         40.17040        28.78980         0.91241
C         38.96594        29.48120         0.89645
C         40.21119        31.62469         1.36199
C         38.90532        30.86985         1.48806
C         40.21716        33.04123         1.37582
C         38.97525        33.77564         1.33214
C         40.24817        35.87595         1.74279
C         38.97942        35.18285         1.46181
C         40.27582        37.42485         1.67841
C         39.00455        38.12127         1.43795
C         40.30912        40.21158         0.98047
C         39.04104        39.53880         1.16604
C         40.31381        41.60785         0.55802
C         39.06176        42.29799         0.33344
C         40.28479        44.38586        -0.24194
C         39.07329        43.70475        -0.00095
C         40.30464        45.79173        -0.43349
C         39.07509        46.52501        -0.41588
C         40.31288        48.61610        -0.65617
C         39.09814        47.94399        -0.53198
C         40.29966        50.10186        -0.68398
C         39.04422        50.79537        -1.06346
C         40.32205        52.87555        -1.58899
C         39.07812        52.15239        -1.49066
C         40.30823        54.23807        -2.00183
C         39.10544        54.88541        -2.36096
C         40.35043        56.89144        -3.06162
C         39.14834        56.22683        -2.85551
C         43.12259        18.64972        -5.99644
C         41.79587        19.01547        -5.51825
C         42.87677        20.19610        -3.63200
C         41.69777        19.84092        -4.36516
C         42.83846        21.22129        -2.69825
C         41.56949        21.79484        -2.32332
C         42.78101        23.68797        -1.29234
C         41.51120        22.88227        -1.41322
C         42.75286        24.73809        -0.22723
C         41.48035        25.33573         0.04709
C         42.68430        27.31471         0.90791
C         41.45362        26.65796         0.56744
C         42.68049        28.69512         1.23692
C         41.38272        29.40595         1.56797
C         42.64712        31.59667         1.43987
C         41.41686        30.90789         1.38664
C         42.66418        32.99983         1.48630
C         41.46092        33.74203         1.43904
C         42.72862        35.90206         1.51194
C         41.50988        35.17232         1.54055
C         42.74961        37.33746         1.35644
C         41.54154        38.08047         1.33993
C         42.80977        40.17622         1.00728
C         41.51539        39.48134         1.07421
C         42.80262        41.66367         0.60112
C         41.51447        42.27062         0.28114
C         42.80836        44.35700        -0.35905
C         41.52391        43.56832        -0.48677
C         42.80447        45.76054        -0.52363
C         41.55372        46.49448        -0.56552
C         42.81134        48.62068        -0.79383
C         41.55617        47.90412        -0.66887
C         42.83559        50.02146        -0.99748
C         41.60032        50.82995        -0.87811
C         42.79382        52.87668        -1.68731
C         41.57011        52.22369        -1.36646
C         42.83570        54.24031        -2.01908
C         41.57286        55.04836        -1.87817
C         42.81360        56.94027        -2.96004
C         41.57675        56.30753        -2.70269
C         44.22492        18.86663        -5.24669
C         45.34512        19.88665        -3.18905
C         44.08954        19.31821        -3.80723
C         45.30783        21.01442        -2.32448
C         44.06711        21.70542        -2.07700
C         45.25141        23.41217        -0.76216
C         44.04611        22.86905        -1.31860
C         45.22579        24.63794        -0.02384
C         43.94287        25.30219         0.21921
C         45.13269        27.24461         1.19773
C         43.91687        26.60648         0.82596
C         45.12928        28.62853         1.39676
C         43.90340        29.35823         1.34118
C         45.21302        31.56118         1.37146
C         43.91523        30.83838         1.28907
C         45.20538        32.99037         1.79193
C         43.91064        33.73498         1.78413
C         45.20619        35.84306         1.45782
C         43.96802        35.19178         1.58223
C         45.20760        37.22909         1.11597
C         44.01362        37.97453         1.06785
C         45.20815        40.05969         0.40782
C         44.04474        39.39894         0.79775
C         45.20491        41.46549         0.05955
C         44.04673        42.23461         0.04997
C         45.25033        44.34696        -0.52122
C         44.03479        43.64624        -0.31183
C         45.28008        45.76019        -0.63355
C         44.04353        46.47399        -0.62332
C         45.28202        48.60350        -0.89317
C         44.04248        47.89827        -0.78635
C         45.27770        50.00560        -1.10680
C         44.05537        50.68747        -1.23207
C         45.34937        52.83751        -1.89195
C         44.03080        52.08105        -1.74812
C         45.31154        54.30127        -2.01849
C         44.06351        54.94550        -2.24182
C         44.01193        56.31458        -2.67153
C         47.72097        19.64482        -2.75853
C         46.55426        19.21273        -3.38057
C         47.72788        20.77799        -1.91487
C         46.49840        21.48479        -1.70177
C         47.66108        23.20202        -0.31449
C         46.47331        22.69420        -0.91513
C         47.62956        24.42777         0.37516
C         46.41675        25.16305         0.51245
C         47.66275        27.10539         1.64415
C         46.32651        26.34709         1.48912
C         47.70658        28.60838         1.72533
C         46.39201        29.35609         1.69680
C         47.68279        31.46317         1.61274
C         46.47310        30.80872         1.52933
C         47.68593        32.93211         1.84767
C         46.46300        33.73126         1.66858
C         47.74284        35.82005         1.50019
C         46.47743        35.11369         1.56012
C         47.76034        37.21109         1.10246
C         46.47708        37.82494         0.65017
C         47.75862        39.98795         0.11027
C         46.44787        39.26754         0.19802
C         47.72927        41.42932        -0.07090
C         46.46168        42.07607        -0.43794
C         47.78279        44.29427        -0.80005
C         46.47518        43.56384        -0.74385
C         47.79183        45.75868        -0.73591
C         46.53570        46.47945        -0.75716
C         47.78012        48.61361        -1.02145
C         46.53107        47.88315        -0.85127
C         47.80539        49.97961        -1.18020
C         46.55658        50.78041        -0.89768
C         47.73931        52.93744        -1.34772
C         46.58645        52.18928        -1.44264
C         47.71869        54.34139        -1.62856
C         46.53988        55.00199        -1.90536
C         50.17939        20.64902        -1.57985
C         48.93657        21.23220        -1.29021
C         50.19468        23.01973        -0.06836
C         48.87757        22.29534        -0.22270
C         50.19889        24.27410         0.69532
C         48.89245        24.94700         0.98675
C         50.17510        27.18709         1.09710
C         48.94586        26.39630         1.39590
C         50.13460        28.58591         1.04153
C         48.94572        29.34459         1.36676
C         50.16038        31.54460         1.30255
C         48.93739        30.75383         1.43855
C         50.20213        32.90021         1.56974
C         48.98331        33.67033         1.88169
C         50.21201        35.83224         1.63243
C         48.97931        35.13645         1.65198
C         50.12319        37.32568         1.91469
C         48.93816        37.92899         1.17134
C         50.23367        40.09626         0.92529
C         49.02744        39.29723         0.63999
C         50.19471        41.55052         0.72634
C         48.92242        42.21886         0.19730
C         50.26442        44.36590        -0.07291
C         49.06740        43.57462        -0.39991
C         50.26340        45.74294        -0.36596
C         49.02815        46.41303        -0.70416
C         50.35566        48.61269        -0.81930
C         49.05117        47.84820        -1.04129
C         50.29736        50.06923        -0.69293
C         49.08715        50.73237        -1.20846
C         50.14568        52.90626        -0.41952
C         49.04934        52.25117        -1.14220
C         51.37249        21.15646        -1.08387
C         52.67068        23.02403        -0.00946
C         51.39750        22.38755        -0.35572
C         52.70045        24.37032         0.45913
C         51.45460        25.06723         0.74083
C         52.66869        27.20743         1.03035
C         51.40557        26.44193         0.94115
C         52.61141        28.59331         0.53061
C         51.33189        29.32582         0.55404
C         52.64166        31.62210         0.79206
C         51.36183        30.88823         0.72572
C         52.76007        32.91992         1.48411
C         51.46072        33.65955         1.74063
C         52.67987        35.82198         1.43494
C         51.46179        35.14039         1.63153
C         52.60383        37.27605         1.03310
C         51.51349        38.07834         1.80332
C         52.67432        40.17568         1.04553
C         51.43473        39.46019         1.17353
C         52.67628        41.57853         0.80084
C         51.45968        42.28626         0.60334
C         52.68495        44.40881         0.42037
C         51.45332        43.67877         0.34227
C         52.68203        45.81927         0.24955
C         51.48231        46.50145        -0.13880
C         52.66826        48.66450         0.08745
C         51.51235        47.90113        -0.26311
C         52.62721        50.09353         0.09026
C         51.39121        50.79175        -0.23930
C         51.26006        52.22413        -0.05064
C         55.11029        22.99673        -0.08285
C         53.88939        22.34968        -0.21437
C         55.16699        24.37038         0.23182
C         53.95322        25.03481         0.54195
C         55.18402        27.23366         0.43232
C         53.98962        26.47489         0.84766
C         55.09763        28.61425         0.17978
C         53.75859        29.11757        -0.02025
C         55.09112        31.68878         0.37222
C         53.76558        31.21035         0.10281
C         55.15069        33.01828         0.86428
C         53.98478        33.71231         1.24592
C         55.14783        35.89297         1.15586
C         53.94842        35.14239         1.35083
C         55.14347        37.32837         1.07275
C         53.91982        38.02832         1.09501
C         55.14725        40.17331         1.02991
C         53.91197        39.45017         1.07327
C         55.14359        41.59798         0.95219
C         53.91535        42.29885         0.79410
C         55.13241        44.44529         0.74917
C         53.90611        43.71512         0.66045
C         55.11503        45.86426         0.68247
C         53.89166        46.55660         0.44402
C         55.08081        48.72168         0.67241
C         53.88229        47.98142         0.40228
C         55.00202        50.14099         0.66594
C         53.81499        50.79797         0.39275
C         57.67864        24.46743         0.02680
C         56.43265        25.10510         0.19960
C         57.60336        27.28237         0.09208
C         56.41322        26.52872         0.24753
C         57.55184        28.74601         0.25794
C         56.26798        29.46254         0.12014
C         57.54402        31.62796         0.08755
C         56.27745        30.88862         0.18894
C         57.58632        33.01981         0.30252
C         56.45296        33.67691         0.93991
C         57.65631        35.94957         0.73184
C         56.43672        35.21101         1.11530
C         57.64500        37.36096         0.88449
C         56.39243        38.05230         1.03466
C         57.63017        40.20226         1.03280
C         56.38870        39.46931         1.03420
C         57.61780        41.63035         1.07329
C         56.37474        42.32762         0.99643
C         57.59110        44.48362         1.00429
C         56.36222        43.74709         0.92798
C         57.56662        45.89770         0.92570
C         56.33995        46.59896         0.81991
C         57.53604        48.71695         1.23704
C         56.31131        48.02794         0.88670
C         58.84656        25.20382        -0.13406
C         60.02370        27.37801        -0.42863
C         58.83089        26.61726        -0.11662
C         60.03064        28.73310        -0.45822
C         58.87899        29.52654         0.00137
C         59.95086        31.73952        -0.49451
C         58.76974        30.96521        -0.24553
C         59.96512        33.09930        -0.43527
C         58.69241        33.86998        -0.26987
C         60.00884        36.00643         0.19536
C         58.81183        35.27054         0.31361
C         60.05130        37.36025         0.49300
C         58.87208        38.07991         0.79522
C         60.07762        40.25930         1.06259
C         58.86877        39.51250         0.97265
C         60.06783        41.62872         1.18479
C         58.84515        42.36407         1.16378
C         60.01557        44.57029         1.46731
C         58.82629        43.78895         1.19213
C         60.03243        45.91728         1.34972
C         58.85825        46.66149         0.78527
C         58.72996        48.07755         1.27575
O         49.49343        24.08748         2.01722
O         40.98166        50.69878         0.47663
O         35.82073        43.86972        -1.36540
O         34.72468        33.69789        -0.70105
O         44.51215        33.25731         3.05860
O         36.49488        39.03365         2.67943
O         49.93940        48.14524        -2.16077
O         32.79374        36.61191         2.69071
O         26.24527        31.35440         3.15130
O         58.40753        29.19738         1.35163
O         33.49478        46.56648         1.43751
O         28.10779        24.79490        -0.36603
O         34.65843        20.08366        -1.57804
O         56.70912        34.30447         2.24144
O         48.71734        39.34405        -0.80788
O         37.85756        23.37404         0.64740
O         53.49698        26.88870         2.18499
O         46.35951        38.18332        -0.77803
O         44.61331        31.32262         0.04492
O         48.68139        43.71198        -1.79468
O         49.40378        51.55856        -2.38977
O         33.10743        23.08488        -1.81091
O         30.52867        41.07737         2.61464
O         51.05782        30.23107        -0.54990
O         27.04369        25.65226         2.93516
O         42.94321        41.24357         2.00328
O         51.96497        38.39711         3.08111
O         48.34244        33.26709         3.13959
O         53.65041        30.21974        -0.87923
O         46.34821        42.58015        -1.82421
O         33.39114        39.65769        -0.43859
O         44.70509        52.15357        -3.04824
O         47.05271        29.00703         2.97103
O         35.35413        23.28314         0.89184
O         52.24164        33.07009         2.84238
O         29.10064        43.35979         2.55665
O         49.24074        42.22816         1.64762
O         37.21231        27.26825        -1.36934
O         40.26548        36.70292         2.95134
O         48.45040        26.57299         2.76899
O         43.80589        18.09543        -3.03725
H         42.97410        17.71502        -3.39193
O         41.46184        43.18190        -1.91748
H         41.45295        44.00793        -2.44663
O         27.10229        41.99225         2.64833
H         27.74164        42.64640         3.09316
O         52.15564        37.28686        -0.35973
H         52.85981        36.89046        -0.91462
O         25.71579        28.78813         3.76773
H         25.87602        29.73751         3.99807
O         41.58331        55.52605        -0.46201
H         40.76014        56.04463        -0.33226
O         23.51896        40.02241         2.37697
H         24.27915        40.16044         2.98170
O         58.21637        34.15244        -1.66269
H         58.27359        33.30941        -2.16244
O         41.19448        29.19271         3.00611
H         40.32731        29.60604         3.24766
O         49.74335        37.40105         3.30778
H         50.55691        37.78717         3.75953
O         37.89584        49.05690         1.17979
H         38.70964        49.58274         1.34203
O         31.27588        31.01990        -1.25283
H         31.46903        31.93270        -1.55818
O         27.10412        42.83466        -1.67076
H         26.26451        42.50776        -2.06262
O         48.69871        21.57735         1.05949
H         48.85087        22.25064         1.76898
O         59.11372        46.76909        -0.67186
H         58.34078        47.22924        -1.06396
O         28.70036        29.53865        -0.82255
H         29.47383        29.95490        -1.27396
O         46.02331        25.74325         2.77037
H         46.87027        25.70335         3.27717
O         38.72755        30.64973         2.94614
H         38.67315        31.53228         3.37288
O         46.60057        50.99591         0.57606
H         46.38566        50.14082         1.00785
O         42.82721        24.48168        -2.54815
H         42.82434        23.84303        -3.29373
H         22.10033        26.74821         2.15100
H         22.03906        29.19354         2.08830
H         22.00546        31.06084         1.62665
H         21.98974        33.46033         1.39356
H         21.95850        35.38363         1.40382
H         21.96021        37.82980         1.24229
H         22.26689        39.31582        -0.27603
H         22.39704        41.55724        -1.23379
H         22.11245        43.59396        -1.00411
H         22.11519        45.99411        -1.59492
H         25.30680        23.38852         1.22711
H         23.24953        24.68883         1.64328
H         25.42455        49.39954        -1.93543
H         23.33272        48.11850        -1.92929
H         27.25508        22.41725         1.83376
H         27.05443        50.36516        -1.99674
H         29.32536        21.28373         1.22714
H         29.13612        51.59986        -2.05807
H         32.55271        19.17446        -0.67713
H         30.63881        20.40478         0.26547
H         32.85424        53.74077        -2.39778
H         30.75865        52.55759        -2.13489
H         34.78201        19.01215        -3.86770
H         34.49246        54.64300        -2.65990
H         36.79285        18.96979        -5.32485
H         36.59078        55.82289        -2.91606
H         40.68455        18.06184        -7.11607
H         38.47508        18.74642        -6.28091
H         40.34786        57.87997        -3.54470
H         38.21975        56.72967        -3.15322
H         43.20866        18.22275        -7.00732
H         42.81605        57.94086        -3.41794
H         45.21749        18.59362        -5.63456
H         44.94945        56.84610        -2.88191
H         48.64017        19.06763        -2.92016
H         46.58446        18.31375        -4.01151
H         48.65845        54.90820        -1.57721
H         46.56166        56.09193        -2.03994
H         50.23668        19.78275        -2.25283
H         50.03196        53.96301        -0.13640
H         52.30763        20.64521        -1.34334
H         52.05846        52.76330         0.47738
H         56.03209        22.43353        -0.27896
H         53.89152        21.29190        -0.50690
H         55.90047        50.74011         0.86517
H         53.81525        51.89609         0.38552
H         57.73978        23.37099         0.00742
H         57.48698        49.77963         1.51477
H         59.80244        24.68200        -0.28481
H         60.92139        26.82025        -0.73403
H         60.92215        29.25838        -0.82907
H         60.89952        31.21061        -0.66416
H         60.90758        33.63310        -0.61693
H         60.93500        35.51090        -0.12482
H         61.01219        37.88607         0.41471
H         61.04300        39.73578         1.05247
H         61.02471        42.16282         1.25552
H         60.91693        44.05282         1.82595
H         60.94570        46.48501         1.58230
H         59.64450        48.62525         1.54798
