         316
 CSIRO Nanostructure Databank - Neutral Graphene Oxide Data Set
C         30.34409        31.45881         0.49013
C         30.37628        32.69002         0.53066
C         30.18427        35.94850         0.28629
C         30.19846        37.18822         0.45422
C         30.45472        40.24062         1.38159
C         30.34883        41.47368         1.48849
C         32.81190        28.75097         0.31955
C         31.67327        29.22133         0.51927
C         32.79179        31.42429         0.17883
C         31.43952        30.60639        -0.06663
C         32.84440        32.87999         0.68670
C         31.46663        33.63632         0.73275
C         32.67639        35.94236         0.38266
C         31.37906        35.10813         0.56841
C         32.31047        37.45388        -0.56767
C         31.23458        38.15785         0.23663
C         32.78831        40.12607         0.79566
C         31.43865        39.36699         0.82883
C         32.63271        41.62692         0.40348
C         31.29164        42.37833         0.80551
C         32.63542        44.32191         0.76743
C         31.55472        43.78100         1.06831
C         35.46775        27.24342         0.17221
C         35.28868        28.61325        -0.14108
C         34.09249        29.30106         0.02377
C         35.18417        31.51805        -0.54126
C         33.99061        30.76334         0.02454
C         35.29702        33.00386        -0.06541
C         33.95231        33.69008         0.03513
C         35.18260        35.93869        -0.23807
C         33.81320        35.16072        -0.32245
C         35.47134        37.23343         0.42307
C         33.49610        38.34518        -0.84838
C         35.11774        40.20049        -0.29140
C         33.80071        39.47386        -0.12626
C         35.16429        41.68909        -0.07243
C         33.89911        42.41127         0.27060
C         35.18928        44.53997         0.61442
C         33.93307        43.77492         0.51597
C         35.32186        45.96738         0.30374
C         37.92320        27.28032         0.50109
C         36.67541        26.79699         0.31477
C         37.82383        28.83463         0.27535
C         36.58791        29.31008        -0.57742
C         37.71725        31.54503        -0.58873
C         36.52785        30.81561        -0.45555
C         37.70725        32.95630        -0.68594
C         36.40284        33.70950        -0.92558
C         37.75398        35.93521        -0.48907
C         36.47816        35.21904        -0.65452
C         37.72194        37.32810        -0.49446
C         36.52975        38.01264        -0.06943
C         37.67506        40.23521        -0.45019
C         36.44427        39.51776         0.16370
C         37.67139        41.72382        -0.14853
C         36.49740        42.38238         0.06681
C         37.68363        44.62876        -0.18079
C         36.51501        43.86076         0.29248
C         37.70781        46.16927        -0.38680
C         36.36852        46.59913         0.13636
C         40.34877        25.14606         2.34597
C         39.36169        25.54733         1.72966
C         40.40844        27.56126         1.04860
C         39.24844        26.58359         0.66839
C         40.35186        28.99019         0.51521
C         39.13729        29.26731        -0.40244
C         40.28330        31.57725        -0.64368
C         39.01829        30.78309        -0.96108
C         40.23782        32.96713        -0.68427
C         38.95865        33.70618        -0.31479
C         40.24481        35.91454        -1.04128
C         38.97872        35.16005        -0.78407
C         40.26219        37.42228        -0.95305
C         38.96913        38.12633        -0.69657
C         40.25668        40.28038        -0.14050
C         38.96222        39.47604         0.00290
C         40.24515        41.77604        -0.22223
C         38.93289        42.48573        -0.54902
C         40.25231        44.64405        -0.35374
C         38.97972        43.89767         0.05940
C         40.24640        46.11336        -0.04463
C         38.89021        46.75316         0.40459
C         40.22821        48.86613         0.31796
C         39.18057        48.21976         0.23741
C         42.91417        25.33420         2.40033
C         41.56981        25.93288         2.70243
C         42.68312        28.12767         1.74312
C         41.49714        27.23471         1.81197
C         42.86487        29.05546         0.75852
C         41.67832        29.40149        -0.16998
C         42.73808        31.61208        -0.50816
C         41.53178        30.89990        -0.43279
C         42.78908        33.04680        -0.92116
C         41.50154        33.77978        -0.49322
C         42.76257        35.89631        -0.36855
C         41.58919        35.21079        -1.07283
C         42.57098        37.30706         0.16255
C         41.62265        38.09655        -0.76092
C         42.70518        40.26036        -0.23605
C         41.54048        39.56499        -0.35657
C         42.81811        41.72061        -0.63188
C         41.52827        42.51758        -0.47915
C         42.82400        44.65557        -0.43147
C         41.54087        43.87752        -0.40638
C         42.82363        46.06775         0.09010
C         41.52297        46.77262         0.42066
C         42.92495        48.77224         0.50656
C         41.54572        48.29505         0.62757
C         44.05299        25.77163         2.25472
C         45.89033        27.49713         1.73094
C         44.71123        27.04760         2.22696
C         45.61457        29.51595         0.54031
C         44.12348        29.94181         0.72318
C         45.23100        31.57881        -0.83054
C         43.95514        31.00108        -0.30747
C         45.29562        33.05698        -0.52390
C         43.97216        33.70788        -0.20550
C         45.26405        35.91255        -0.24377
C         43.93268        35.21330        -0.26848
C         45.18607        37.27550         0.41498
C         43.89576        38.06558         0.37718
C         45.31599        40.19807        -0.20045
C         43.96172        39.54229         0.10911
C         45.30561        41.68887        -0.01747
C         43.99825        42.45247         0.04077
C         45.38904        44.60453        -0.07400
C         44.14207        43.87446        -0.58803
C         45.35661        45.92167         0.29910
C         44.10471        46.62606         0.73768
C         43.97297        48.12177         0.51981
C         47.50175        27.32893        -0.06837
C         46.80886        26.83217         0.84178
C         47.58731        28.53917        -0.80346
C         46.25511        29.25121        -0.81272
C         47.74054        31.31495        -0.08310
C         46.33108        30.67710        -0.26720
C         47.70365        32.87813        -0.05580
C         46.45727        33.66632        -0.22425
C         47.73865        35.86330         0.02786
C         46.45794        35.09522         0.32516
C         47.72536        37.38464        -0.07711
C         46.47114        38.01068         0.52960
C         47.71112        40.17407         0.93073
C         46.42474        39.51192         0.60507
C         47.89470        41.62016         0.49256
C         46.52482        42.42457         0.50131
C         48.04914        44.50965         0.19302
C         46.68682        43.78891        -0.24680
C         47.78413        45.93939         0.35018
C         46.67691        46.44047         0.60430
C         50.07120        28.78301        -1.00695
C         48.75567        29.23958        -1.05353
C         50.09307        31.57092        -1.42393
C         48.67066        30.79706        -1.27519
C         50.25640        32.86040        -0.50481
C         48.96818        33.65913        -0.25639
C         50.21186        35.78080         0.21486
C         48.93805        35.17629        -0.54583
C         50.27308        37.34370         0.06354
C         48.98833        38.05922         0.47905
C         50.22876        39.96488         1.54082
C         48.96680        39.33843         0.94545
C         50.20698        41.50324         1.73792
C         48.93593        42.34274         1.42776
C         50.38389        44.30042         1.50297
C         49.18825        43.77718         0.81619
C         51.20532        29.36000        -1.03593
C         52.51412        31.61072        -1.06991
C         51.43540        30.71090        -1.14258
C         52.64737        32.84544        -0.91566
C         51.46314        33.80182        -1.02155
C         52.50901        36.06023        -0.37361
C         51.50763        35.11038        -0.28835
C         52.66571        37.32569        -0.25977
C         51.57636        37.93791         0.68628
C         52.64021        40.16996         1.38905
C         51.53636        39.46181         0.64714
C         52.67889        41.35897         1.73923
C         51.55896        42.24412         2.03817
C         51.42341        43.67197         1.75453
O         39.53322        38.08675        -2.04120
O         49.15438        44.01585        -0.59873
O         43.83672        39.01171         1.48229
O         39.44185        35.38641        -2.16703
O         40.20021        45.64436        -1.41116
O         42.88070        45.81319        -1.33907
O         35.15885        41.06183        -1.45894
O         45.89814        37.35761         1.68502
O         43.75346        28.00240         2.68249
O         46.69371        40.00575         1.96110
O         35.68177        35.97974        -1.61362
O         31.56755        41.95300        -0.53453
O         40.33897        41.13817         1.08334
O         41.42738        47.37292         1.75150
O         50.70841        41.81914         3.10666
O         46.14562        28.91694         1.73241
O         48.45607        33.40174         1.08861
O         31.36081        34.49699         1.89643
O         36.04468        44.16071         1.71268
O         38.88403        30.67707        -2.35105
O         45.25702        31.48424        -2.30273
H         44.52057        32.07944        -2.62377
O         31.80442        37.04842        -1.82028
H         30.92838        36.62313        -1.69583
O         39.56798        25.97375        -0.57976
H         39.45982        26.65961        -1.28554
O         37.64088        40.11861        -1.89170
H         36.73027        40.38485        -2.17909
O         38.90560        33.76664         1.15793
H         38.03650        33.40581         1.45175
O         43.04383        33.06843        -2.34682
H         42.22697        32.78479        -2.80997
O         33.43045        35.14432        -1.72787
H         34.14796        34.67262        -2.21589
O         36.05974        33.60872        -2.33424
H         36.70739        34.14911        -2.83720
O         41.97427        35.23380        -2.46472
H         41.14482        35.21653        -2.99596
O         43.58243        42.64582         1.41232
H         44.39121        42.87204         1.93791
O         33.04576        36.28755         1.69036
H         32.24375        36.34515         2.25048
O         35.87847        32.98490         1.27849
H         35.13418        32.78095         1.90270
O         36.76653        29.00123        -1.96853
H         37.41040        29.66911        -2.35043
O         45.56897        36.10561        -1.66527
H         44.72924        36.26412        -2.15096
O         44.12811        30.63493         2.00709
H         44.66002        30.07641         2.62120
O         46.85986        43.47666        -1.63060
H         46.86616        44.30666        -2.15059
O         41.92245        28.71520        -1.40428
H         41.04464        28.53648        -1.82780
O         39.31332        28.43515        -1.56367
H         39.15834        29.08481        -2.33608
O         50.37095        39.36057         2.82569
H         50.62238        40.06581         3.46975
O         50.02976        35.41608         1.58614
H         50.63288        35.97931         2.12979
O         51.34970        34.17506        -2.38834
H         51.23481        33.35637        -2.93438
O         37.85520        46.52638        -1.74489
H         37.13237        46.12532        -2.26786
O         45.59067        39.91065        -1.60625
H         45.03818        40.52939        -2.13949
O         40.22212        29.86543         1.67148
H         41.02117        29.76002         2.23496
O         44.34703        43.74349        -2.00337
H         44.01714        44.56956        -2.42292
O         45.43258        28.88907        -1.89412
H         45.05830        29.70003        -2.31597
O         50.65749        32.35046         0.77858
H         50.61649        33.09236         1.42439
O         38.88794        39.13371         1.41276
H         39.38663        39.83366         1.90276
O         34.22385        37.99848        -1.92368
H         33.85683        37.16681        -2.30547
O         41.92149        37.16831         1.43973
H         42.36879        37.78071         2.06824
O         36.40924        39.77862         1.60113
H         37.29851        39.50595         1.95447
O         50.21036        31.94534        -2.78797
H         49.41845        31.60492        -3.27665
O         38.87824        42.61223        -1.98581
H         38.52987        41.75737        -2.34417
O         43.85334        33.40218         1.21493
H         44.58238        33.88478         1.68147
O         51.79709        37.45781         1.98771
H         52.36159        38.09929         2.47255
O         42.25713        38.09031        -2.06814
H         41.54461        38.19624        -2.73765
O         46.17214        42.76153         1.86607
H         46.23290        41.92058         2.38542
O         50.38893        37.63111        -1.35200
H         49.47407        37.57500        -1.74817
O         49.02561        35.43077        -1.95029
H         49.93703        35.20521        -2.27675
O         39.09007        43.70254         1.49457
H         38.76684        44.52236         1.94265
O         34.85527        37.66723         1.53269
H         35.32566        38.49449         1.84177
O         33.28639        40.16481         2.15086
H         33.41664        39.24452         2.46230
O         38.69910        46.48330         1.78408
H         39.42661        46.92440         2.28280
O         47.99533        31.01304        -2.51449
H         47.01179        31.10642        -2.41693
O         46.22872        34.90456         1.74659
H         47.04759        34.49458         2.11010
O         51.44298        39.95539        -0.64930
H         51.29819        39.20188        -1.27658
O         48.28982        30.84313         1.13234
H         49.06611        31.41074         1.36501
O         41.50550        34.02443         0.92858
H         41.51936        33.16982         1.40797
O         43.98895        46.39325         2.13839
H         44.79330        46.73391         2.58300
O         34.88227        31.40586        -1.95231
H         35.54991        31.91885        -2.47052
O         33.23811        32.70864         2.09799
H         32.78863        33.42216         2.61196
O         47.72337        37.74052        -1.49753
H         47.04385        37.16636        -1.93657
O         31.28787        30.48965        -1.45172
H         30.49972        29.94491        -1.65158
O         48.44554        41.50199        -0.81503
H         48.22785        42.29962        -1.35863
O         48.35380        42.59699         2.70787
H         49.08933        42.67138         3.36080
O         37.63304        29.42721         1.55360
H         38.50861        29.54051         2.00117
O         43.13076        41.58771        -2.04859
H         42.34299        41.23120        -2.51027
O         41.55848        26.34661         4.04562
H         41.61821        25.56151         4.62717
