         210
 CSIRO Nanostructure Databank - Neutral Graphene Oxide Data Set
C         30.44437        31.57392         0.18626
C         30.49071        32.81829         0.34794
C         30.56586        35.96556         0.91517
C         30.55244        37.10298         1.40368
C         30.76617        40.18331         1.93432
C         30.66987        41.43735         2.09319
C         32.81698        28.85308        -0.85490
C         31.78701        29.42467        -0.47090
C         32.80560        31.55001        -0.13644
C         31.59745        30.79519        -0.08100
C         32.81863        32.97421         0.01569
C         31.59010        33.70044         0.26684
C         32.78761        35.84035         0.22081
C         31.59203        35.10398         0.39173
C         32.67792        37.36912         0.26646
C         31.87227        37.87580         1.49775
C         32.95133        40.16876         1.13090
C         31.78824        39.37207         1.46910
C         32.97440        41.59960         1.38783
C         31.79248        42.27244         1.89569
C         33.08462        44.22989         1.98124
C         31.98076        43.66419         2.13756
C         35.51915        27.44152        -1.54100
C         35.37013        28.85178        -1.23971
C         34.06726        29.59639        -1.28230
C         35.34723        31.63466        -0.50511
C         34.11797        30.78155        -0.26397
C         35.31774        33.02505        -0.24989
C         34.04279        33.72498        -0.04465
C         35.26876        35.90043         0.18489
C         34.00227        35.13659         0.04259
C         35.28773        37.37723        -0.04474
C         33.99437        38.12520         0.13544
C         35.29111        40.30356         0.09726
C         34.06844        39.53362         0.54345
C         35.40390        41.67067         0.73555
C         34.22488        42.31385         1.20892
C         35.54660        44.40225         1.43179
C         34.32963        43.71115         1.55075
C         35.76397        45.78937         1.67820
C         37.87340        27.29702        -0.93660
C         36.58559        26.83006        -1.25538
C         37.89138        28.79609        -1.32230
C         36.56715        29.52453        -1.06368
C         37.79066        31.68307        -0.75801
C         36.57366        30.96381        -0.78466
C         37.77528        33.07057        -0.46379
C         36.54635        33.73386        -0.22961
C         37.80576        35.95631        -0.13126
C         36.57512        35.17103         0.09899
C         37.80123        37.36214        -0.04364
C         36.57510        38.11003         0.09273
C         37.82503        40.22256         0.12121
C         36.58192        39.49773         0.17897
C         37.85361        41.63525         0.29552
C         36.65077        42.34533         0.68540
C         38.00837        44.44265         0.90462
C         36.74876        43.73510         1.02523
C         38.09223        45.88363         1.12667
C         36.83043        46.41221         1.51404
C         40.18836        24.42223        -0.34685
C         39.22078        25.23414        -0.37750
C         40.17334        27.40624        -0.04199
C         38.99177        26.63909        -0.43985
C         40.21269        28.82594        -0.38595
C         39.10519        29.51704        -0.79960
C         40.26069        31.72976        -0.39086
C         39.11745        31.01368        -1.07273
C         40.24979        33.10272        -0.25599
C         39.01244        33.82510        -0.35449
C         40.27758        35.95297        -0.26194
C         39.02365        35.23162        -0.25824
C         40.26506        37.38184        -0.31437
C         39.03765        38.08720        -0.18298
C         40.26239        40.22219        -0.35590
C         39.03937        39.50863        -0.12387
C         40.27844        41.64352        -0.22166
C         39.09403        42.34199         0.17214
C         40.46344        44.42714         0.38778
C         39.15821        43.74104         0.47344
C         40.54033        45.95536         0.55287
C         39.23815        46.63486         0.83142
C         40.38649        48.70704         0.26276
C         39.41920        48.01317         0.70175
C         42.73147        24.45766         0.20774
C         41.35035        24.57211         0.44339
C         42.60659        27.45256         0.57976
C         41.28178        26.84453         0.60432
C         42.69876        28.82491         0.32169
C         41.50908        29.52437        -0.20516
C         42.64024        31.68721         0.56608
C         41.53370        31.01554        -0.22034
C         42.67293        33.15726         0.24897
C         41.50169        33.82582        -0.03150
C         42.74128        35.98596        -0.13846
C         41.49815        35.26496        -0.15827
C         42.74514        37.37706        -0.44285
C         41.49191        38.09147        -0.52066
C         42.65119        40.21155        -1.14286
C         41.44929        39.49710        -0.67794
C         42.59938        41.69345        -1.10228
C         41.49482        42.36778        -0.51810
C         42.71240        44.53264        -0.69689
C         41.56937        43.77328        -0.32673
C         42.70662        45.97132        -0.67003
C         41.65997        46.69965        -0.09332
C         42.77245        48.68048        -0.80109
C         41.60414        48.16479        -0.16962
C         43.60507        25.29014         0.59962
C         45.07561        27.36131         0.62886
C         43.83591        26.68283         0.65249
C         45.16208        28.80193         0.52957
C         43.94274        29.53501         0.39419
C         45.18146        31.64928         0.52633
C         43.96436        30.96223         0.42434
C         45.19666        33.13062         0.69202
C         43.90581        33.89794         0.53678
C         45.19312        36.00733         0.15571
C         43.95703        35.32300         0.17243
C         45.19872        37.38278        -0.20611
C         43.99686        38.04817        -0.53119
C         45.24142        40.22446        -0.74430
C         44.00088        39.44043        -1.04329
C         45.49314        41.52514        -1.32510
C         43.66068        42.49476        -1.56723
C         45.16991        44.49028        -1.32982
C         43.85136        43.84550        -1.23975
C         45.11712        45.91477        -1.38871
C         43.79666        46.61023        -1.56329
C         43.77560        48.08055        -1.22422
C         47.45467        27.40880         0.83053
C         46.37638        26.78954         0.73287
C         47.67979        28.81188         0.75138
C         46.41403        29.51821         0.55468
C         47.67766        31.70448         0.45882
C         46.41110        30.93867         0.51455
C         47.68541        33.17572         0.62246
C         46.46342        33.88809         0.55085
C         47.69421        36.00824         0.43372
C         46.44605        35.29282         0.39807
C         47.72748        37.41206         0.20846
C         46.53152        38.05693        -0.44519
C         47.74791        40.30620        -0.20981
C         46.48603        39.54554        -0.20575
C         47.72657        41.70774        -0.41471
C         46.53502        42.36026        -0.92956
C         47.66405        44.52016        -0.97451
C         46.43361        43.79547        -1.14484
C         47.47976        45.90775        -1.12667
C         46.38547        46.50590        -1.30824
C         50.11362        29.01290         1.45623
C         48.87805        29.48584         0.97445
C         50.17963        31.72289         1.18857
C         48.99778        30.95237         0.71639
C         50.13662        33.14865         1.10213
C         48.91472        33.87032         0.78657
C         50.10691        36.06257         0.93435
C         48.90724        35.30407         0.73505
C         50.10936        37.49177         0.77392
C         48.91258        38.17360         0.36418
C         50.14238        40.37087         0.30939
C         48.94097        39.61131         0.13401
C         50.16009        41.79790         0.08014
C         48.94254        42.45953        -0.30758
C         50.15102        44.44930        -0.43616
C         48.88479        43.86374        -0.61228
C         51.16818        29.60907         1.78302
C         52.43407        31.86971         1.98966
C         51.34445        31.01973         1.67969
C         52.36741        33.11454         1.83911
C         51.30134        33.93721         1.42160
C         52.39410        36.21772         1.51755
C         51.29772        35.34440         1.30935
C         52.39774        37.45784         1.35596
C         51.30542        38.27089         0.96095
C         52.42219        40.54703         0.84382
C         51.32620        39.66371         0.72972
C         52.50421        41.78067         0.63380
C         51.39508        42.56542         0.22434
C         51.24416        43.93408        -0.08186
O         41.12081        25.67498         1.37573
O         43.33407        39.62749        -2.30662
O         35.96315        35.51661         1.41679
O         34.54699        37.83799        -1.23232
O         45.51278        40.10864         0.70815
O         41.92093        30.29065        -1.43016
O         40.91988        45.06608         1.63939
O         44.44168        33.56567         1.89355
O         44.66190        41.91311        -2.37329
O         48.56548        31.28907        -0.63763
O         38.05546        28.78700        -2.77331
H         37.26209        28.35599        -3.15821
O         31.89643        37.76696        -0.88041
H         32.46726        37.66996        -1.67361
O         34.34671        30.14241         1.02283
H         34.34265        30.83392         1.71701
O         46.78024        37.96158        -1.89315
H         46.88574        37.01376        -2.12204
O         42.26399        31.57558         1.97444
H         42.88369        32.15681         2.47426
O         39.35986        31.19314        -2.50147
H         40.21932        30.75376        -2.69666
O         43.35958        46.42915        -2.91576
H         44.07934        46.71004        -3.51838
O         32.54895        37.47310         2.67865
H         32.06653        37.81499         3.45966
O         35.10051        40.56142        -1.34215
H         34.93643        39.68023        -1.75809
O         33.87396        30.10711        -2.59192
H         33.90650        29.36698        -3.23242
