         349
 CSIRO Nanostructure Databank - Neutral Graphene Oxide Data Set
C          1.26279         3.46271         0.19557
C          0.09795         4.18074         0.41585
C          1.11803         6.28835        -0.30784
C          0.03127         5.57623         0.20814
C          1.13104         7.72155        -0.45089
C         -0.07387         8.47063        -0.45800
C          1.14198        10.59575        -0.50041
C         -0.07307         9.84796        -0.54574
C          1.14321        12.03021        -0.43636
C         -0.04200        12.78310        -0.79167
C          1.01365        14.89927        -0.13675
C         -0.07350        14.13800        -0.76982
C          1.05020        16.39566        -0.38134
C         -0.20218        17.11366         0.03752
C          0.96743        19.24147        -0.17066
C         -0.21761        18.49028         0.01306
C          0.94857        20.68153        -0.49563
C         -0.19801        21.50272        -0.06645
C          1.20181        23.52613         0.01065
C         -0.05873        22.82494         0.17406
C          1.32953        24.87017         0.45007
C          0.41668        25.33283         1.48507
C          1.30725        27.61153         1.35877
C          0.49165        26.56024         2.03173
C          1.79733        28.70430         2.27465
C          3.66774         3.45854        -0.37109
C          2.43423         4.10738        -0.29351
C          3.63944         6.31009        -0.88199
C          2.31754         5.52426        -0.67652
C          3.59431         7.76162        -0.67434
C          2.38297         8.43685        -0.53509
C          3.58294        10.61429        -0.24691
C          2.37567         9.89382        -0.42360
C          3.58695        12.01674        -0.12154
C          2.34602        12.71541        -0.16411
C          3.60954        14.90404         0.42224
C          2.30215        14.15680         0.15125
C          3.60326        16.37580         0.00961
C          2.29834        17.08439         0.17022
C          3.52454        19.30701        -0.16288
C          2.25914        18.58847         0.09143
C          3.52074        20.60451        -0.56709
C          2.26191        21.38538        -0.74500
C          3.53687        23.57230        -0.69434
C          2.33651        22.85703        -0.50625
C          3.57109        24.99625        -0.56894
C          2.43728        25.67169         0.03846
C          3.27408        28.03862        -0.00911
C          2.42198        27.05820         0.48000
C          3.68345        29.19370         0.76755
C          2.86551        29.46026         1.95210
C          6.13868         3.45746        -0.35211
C          4.90164         4.16382        -0.52603
C          6.09499         6.33197        -0.49557
C          4.89241         5.57705        -0.66747
C          6.09757         7.71218        -0.49183
C          4.87889         8.54133        -0.81383
C          6.09921        10.66000        -0.20211
C          4.84969         9.83577         0.01395
C          6.10444        12.04229        -0.13465
C          4.84521        12.76272        -0.03678
C          6.08995        14.88388         0.00361
C          4.85252        14.14972         0.01438
C          6.05712        16.35245        -0.40455
C          4.76166        17.07179        -0.09604
C          6.05890        19.25673        -0.31022
C          4.80531        18.56963         0.17873
C          6.05742        20.60571        -0.66285
C          4.77671        21.30156        -0.92328
C          6.07364        23.49783        -1.02682
C          4.76470        22.81239        -1.06486
C          6.05637        24.93522        -1.08649
C          4.81419        25.65870        -0.94992
C          6.09269        27.75232        -1.29247
C          4.90014        27.04970        -1.19591
C          6.06207        29.75231        -0.11991
C          4.87159        29.91909         0.67561
C          8.60917         3.44558        -0.11643
C          7.37354         4.11107        -0.29492
C          8.64346         6.31601        -0.14716
C          7.38025         5.58491        -0.45573
C          8.58246         7.76546         0.19085
C          7.30083         8.46429        -0.07519
C          8.68153        10.66631        -0.15918
C          7.34905         9.92827        -0.35169
C          8.58583        12.09536         0.13544
C          7.36187        12.76491         0.03902
C          8.54953        14.97222         0.34261
C          7.29307        14.20791         0.13255
C          8.60126        16.38980        -0.20842
C          7.29902        17.13802        -0.05750
C          8.52842        19.29447        -0.27936
C          7.29870        18.53569        -0.20804
C          8.51006        20.66420        -0.51196
C          7.27994        21.34089        -0.77199
C          8.55370        23.43231        -1.26271
C          7.26200        22.76035        -1.00297
C          8.55632        24.95775        -1.41258
C          7.27345        25.64137        -1.22839
C          8.57225        27.73916        -1.17909
C          7.32836        27.06132        -1.24213
C          8.55967        29.73681        -0.15732
C          7.29015        30.15650         0.38001
C         11.06889         3.42351         0.16329
C          9.85386         4.11681         0.04001
C         11.02070         6.25939         0.46006
C          9.87188         5.57030         0.18445
C         11.03101         7.72930         0.70104
C          9.85773         8.51885         0.28607
C         11.16711        10.59437         0.41652
C          9.90736         9.88814         0.21966
C         11.12449        12.08928         0.15563
C          9.82938        12.72229         0.74870
C         11.13390        14.96374         0.19051
C          9.83441        14.25229         0.59994
C         11.08434        16.43525         0.54314
C          9.77757        17.15396         0.37944
C         11.10322        19.26360        -0.17551
C          9.79744        18.63941         0.15253
C         10.98711        20.60750        -0.89093
C          9.81027        21.40801        -0.30117
C         11.01312        23.49258        -0.91449
C          9.82550        22.81594        -0.85103
C         11.08199        24.93296        -1.42679
C          9.80456        25.67873        -1.15831
C         11.00563        27.77132        -0.51931
C          9.80323        27.06761        -0.91759
C         10.97909        29.07996         0.07109
C          9.76693        29.78909         0.48280
C         13.51881         3.41948         0.39930
C         12.32801         4.10102         0.21858
C         13.57271         6.37922         0.23015
C         12.30655         5.58793         0.18111
C         13.63993         7.69423         1.01799
C         12.32213         8.47348         0.95819
C         13.64005        10.65393         1.02554
C         12.33978         9.93179         0.68984
C         13.65823        12.08853         0.57691
C         12.37257        12.79941         0.68037
C         13.69619        15.05459         0.90155
C         12.36860        14.28512         0.78082
C         13.66205        16.43431         0.23952
C         12.38133        17.18735         0.37722
C         13.53389        19.15820        -0.68841
C         12.28971        18.58201        -0.10490
C         13.50952        20.63099        -1.01255
C         12.27147        21.40134        -0.78735
C         13.52800        23.53753        -0.41446
C         12.26839        22.76573        -0.72139
C         13.59631        24.93553        -1.07855
C         12.29647        25.68338        -0.94246
C         13.47999        27.69554        -0.17567
C         12.25119        27.02778        -0.55065
C         13.44143        29.05632         0.25600
C         12.18268        29.69020         0.43837
C         16.07205         3.45190         0.73171
C         14.82999         4.07579         0.28471
C         16.10027         6.33467         0.44372
C         14.85463         5.61373         0.15130
C         16.08534         7.75107         0.52179
C         14.87795         8.49565         0.64438
C         16.11672        10.63239         0.41641
C         14.89098         9.89331         0.65453
C         16.11714        12.06051         0.24424
C         14.85947        12.81435         0.42068
C         16.25049        14.89901         0.58198
C         14.89202        14.22179         0.48283
C         16.12760        16.47457         0.49524
C         14.83791        17.07082        -0.05903
C         16.01865        19.18099        -0.68736
C         14.84923        18.48389        -0.47593
C         16.08552        20.61375        -1.08846
C         14.78777        21.39308        -1.14070
C         16.02063        23.46788        -0.61484
C         14.81830        22.80434        -0.74723
C         16.01256        24.91148        -0.36780
C         14.80576        25.63365        -0.50542
C         15.93346        27.69236         0.18973
C         14.73817        27.00972        -0.17966
C         15.88977        29.09275         0.50174
C         14.63713        29.74360         0.55423
C         18.54977         3.48786         0.88011
C         17.27262         4.15344         0.67207
C         18.56831         6.25319         0.23544
C         17.28723         5.57430         0.47076
C         18.58449         7.76243         0.20634
C         17.37689         8.48388         0.75627
C         18.57527        10.61569         0.16125
C         17.34326         9.94003         0.36827
C         18.55248        12.02565        -0.11665
C         17.30106        12.72818        -0.08534
C         18.53884        14.89369        -0.61635
C         17.17965        14.21411        -0.44848
C         18.64610        16.36166        -0.37050
C         17.41001        17.12819        -0.02621
C         18.60649        19.18243        -1.02118
C         17.32550        18.48030        -0.66142
C         18.63110        20.70065        -1.22712
C         17.32813        21.37785        -0.84195
C         18.52364        23.48565        -0.38686
C         17.29213        22.75386        -0.66876
C         18.47450        24.86501        -0.02716
C         17.21229        25.57928        -0.03241
C         18.35836        27.69600         0.56217
C         17.17757        26.99093         0.24354
C         18.33475        29.11640         0.72910
C         17.09487        29.79156         0.73427
C         19.74528         4.14024         0.79251
C         21.00883         6.26935         0.49234
C         19.82846         5.54680         0.48291
C         21.03175         7.69102         0.38423
C         19.87818         8.45320         0.33089
C         21.02006        10.61833         0.03082
C         19.83542         9.90603         0.21691
C         20.99823        11.98665        -0.25736
C         19.80066        12.68926        -0.35149
C         21.07894        14.92123        -0.54082
C         19.83301        14.13697        -0.66091
C         21.09084        16.27603        -0.71436
C         19.89330        17.05846        -0.79688
C         21.06659        19.24314        -0.66321
C         19.90293        18.47090        -0.80767
C         21.01528        20.63974        -0.50341
C         19.84274        21.37478        -0.63380
C         20.93030        23.49525         0.04783
C         19.77045        22.78882        -0.34416
C         20.87312        24.83807         0.39148
C         19.66333        25.54225         0.35233
C         20.84555        27.78802         0.52006
C         19.63479        26.96236         0.86777
C         20.78689        29.15843         0.60416
C         19.56439        29.83118         0.81788
O          7.69363         8.10621         1.31743
O         19.10365        14.51965        -1.91008
O          9.11804        14.88566         1.70005
O         15.48200        21.01898        -2.37090
O         14.97132         4.77830        -1.01646
O          1.31665        14.46721         1.21850
O         17.84120        18.48347        -2.06087
O          9.56100        18.05357         1.49301
O          4.65815        21.93796        -2.24501
O          1.43006        20.97856        -1.88048
O         12.85301         6.31908        -1.02290
O          2.83348         5.82994        -2.00895
O         18.42064        16.88773         1.00578
O         18.46211         7.03505        -1.03747
O          8.17903        10.30292        -1.49944
O         12.11815        13.49285         1.98044
O          6.01131        29.15275        -1.39670
O         11.45472         8.09807         2.08275
O          8.27130         6.04460        -1.54884
O         11.80306        16.87869         1.70535
O         13.33114        19.62462        -2.07547
O          8.60192        24.05540        -2.59507
O          3.76047        27.85018        -1.31250
O          2.19600        17.82570         1.41563
O          8.54241        29.09823        -1.42688
O         17.58301         8.45872         2.21495
H         16.79568         8.87123         2.63233
O         19.66120        26.82390         2.34974
H         19.65018        27.73388         2.71757
O          4.82296         9.42009         1.40741
H          4.81488        10.22261         1.96987
O         10.70019        20.33769        -2.27983
H         11.53775        19.99565        -2.67852
O          9.79712        12.38643         2.14852
H          9.39087        13.15343         2.61554
O         16.05873        16.95587         1.87442
H         15.22062        16.59730         2.26704
O         13.49913        23.78670         1.02140
H         13.14879        22.99052         1.47287
O         13.63974        10.70284         2.50165
H         12.90774        11.29946         2.77483
O         16.51212        14.31388        -1.72432
H         17.18629        14.12500        -2.41676
O          1.15332        16.51014        -1.83796
H          1.01730        17.45127        -2.08186
O         10.02022        21.52527         1.13466
H          9.79553        20.66554         1.55285
O         13.86176         7.27871         2.39255
H         13.04336         7.50188         2.89736
O         13.86667        24.75319        -2.49229
H         12.99708        24.69547        -2.96365
O          8.84788        16.24527        -1.64811
H          8.95188        17.14156        -2.03499
O          4.98127         8.95610        -2.20700
H          4.97536         8.15174        -2.76788
O          6.06355        16.26854        -1.88106
H          6.97766        16.00281        -2.14792
O         18.73007        20.91766        -2.66509
H         18.07537        20.31330        -3.08469
O         11.26460        14.94539        -1.24663
H         11.23774        14.00375        -1.55909
O         16.82836        14.58366         1.86597
H         16.85937        15.42958         2.37984
O          4.89178        18.63947         1.64423
H          4.05922        18.23410         1.99106
O          0.37897        28.27207         0.42204
H          0.90107        28.90259        -0.11959
O         11.20178        24.81035        -2.90383
H         10.35706        24.39318        -3.21294
O         11.10575        12.26161        -1.28848
H         10.38647        11.70687        -1.66369
O          3.73790        14.97991         1.87512
H          2.82401        15.08939         2.23108
O         13.90508        15.32744         2.32449
H         13.41924        14.62063         2.81535
H          1.30377         2.39015         0.43403
H         -0.78625         3.66450         0.81497
H         -0.89130         6.10497         0.48574
H         -1.03636         7.94063        -0.43664
H         -1.03594        10.37506        -0.57917
H         -0.89391        12.24000        -1.22401
H         -0.91629        14.68735        -1.21244
H         -1.13458        16.54825         0.17023
H         -1.18168        19.01349         0.09885
H         -1.17099        21.01928         0.09946
H         -0.93997        23.40241         0.48503
H         -0.25183        24.58884         1.94096
H         -0.12899        26.83765         2.89583
H          1.19878        28.94515         3.16594
H          3.71237         2.38186        -0.14616
H          3.17285        30.29078         2.60615
H          6.10090         2.36489        -0.22527
H          5.02161        30.62813         1.50906
H          8.61051         2.34469        -0.10092
H          7.31069        30.65244         1.36182
H         11.06670         2.32333         0.14609
H          9.84734        30.40117         1.39422
H         13.49644         2.32882         0.54721
H         12.16072        30.69492         0.88434
H         16.05900         2.40332         1.06458
H         14.59019        30.80384         0.84291
H         18.53280         2.41063         1.10219
H         17.06815        30.87833         0.90155
H         20.68243         3.58910         0.96141
H         21.96140         5.74303         0.65139
H         22.01487         8.18080         0.43003
H         21.98929        10.10460         0.06802
H         21.95460        12.49553        -0.43270
H         22.03439        14.39904        -0.39910
H         22.06212        16.79008        -0.74626
H         22.03907        18.74713        -0.54383
H         21.95077        21.13959        -0.21757
H         21.90075        22.98540         0.09649
H         21.79229        25.33951         0.72209
H         21.81277        27.29658         0.34750
H         21.70555        29.75118         0.48206
H         19.54542        30.92522         0.91524
