         430
 CSIRO Nanostructure Databank - Neutral Graphene Oxide Data Set
C         28.20068        27.37161        -0.36056
C         27.96900        28.75589         0.17511
C         26.93458        29.53798        -0.58001
C         28.07492        31.64577        -0.06587
C         26.97304        30.88598        -0.63196
C         28.04882        33.05186         0.03662
C         26.87819        33.81562        -0.28643
C         27.96138        35.91441         0.37048
C         26.83339        35.17185        -0.12465
C         27.90921        37.33279         0.52117
C         26.70553        38.08552         0.27900
C         27.81475        40.29265         0.75917
C         26.64628        39.43778         0.35789
C         27.91770        41.61886         0.01447
C         26.79513        42.20369        -0.61945
C         28.08214        44.18904        -1.18496
C         26.87928        43.44100        -1.23250
C         28.19675        45.46978        -1.79570
C         30.47566        27.37945         0.54495
C         29.36254        26.72078        -0.08344
C         30.44748        28.78392         0.67982
C         29.26082        29.51543         0.34459
C         30.43220        31.65034         0.71194
C         29.24894        30.91786         0.33625
C         30.40101        33.03869         0.82539
C         29.20313        33.77336         0.52664
C         30.29696        35.90606         1.32848
C         29.14509        35.17554         0.67583
C         30.30211        37.37598         1.00155
C         29.12193        38.07633         0.80962
C         30.30637        40.25694         0.77107
C         29.12698        39.53399         0.73825
C         30.35137        41.68843         0.52373
C         29.12703        42.33152         0.06219
C         30.39996        44.41578        -0.38580
C         29.21058        43.64781        -0.50134
C         30.48664        45.68891        -0.97047
C         29.36612        46.18661        -1.70478
C         32.88114        24.54639         0.44384
C         31.70433        25.15722         0.67625
C         32.93984        27.29933         1.22846
C         31.58519        26.56230         1.20169
C         32.92420        28.80576         1.20828
C         31.64783        29.52495         0.99508
C         32.91281        31.64694         0.96528
C         31.65758        30.91185         0.95826
C         32.89804        33.03069         1.00868
C         31.62104        33.72907         1.40960
C         32.79876        35.87297         0.87030
C         31.62574        35.20937         1.13312
C         32.78804        37.34721         0.68083
C         31.57580        38.08765         1.13921
C         32.85314        40.29143         0.73814
C         31.58789        39.58159         1.02327
C         32.82763        41.71888         0.70017
C         31.55007        42.39337         0.57079
C         32.83895        44.55463         0.21963
C         31.50830        43.90788         0.50015
C         32.88505        45.87795        -0.25292
C         31.70096        46.48087        -0.81865
C         32.90430        48.59003        -1.04201
C         31.75138        47.82818        -1.20792
C         35.42410        23.10592         0.16885
C         35.39090        24.52110         0.29930
C         34.16314        25.22918         0.51534
C         35.41793        27.31990         0.74500
C         34.19268        26.60402         0.80263
C         35.43607        28.77210         1.01181
C         34.17663        29.54042         0.94518
C         35.38336        31.67409         0.59088
C         34.16610        30.92040         0.82831
C         35.32292        33.07119         0.48221
C         34.09389        33.78443         0.75005
C         35.26353        35.93562         0.17638
C         34.05223        35.18068         0.68772
C         35.33045        37.39926         0.52934
C         34.05772        38.12240         0.50899
C         35.29971        40.28383         0.62342
C         34.05681        39.59125         0.67850
C         35.28592        41.71578         0.64450
C         34.04930        42.41653         0.68996
C         35.33490        44.57658         0.51797
C         34.03675        43.91379         0.87876
C         35.31842        46.08241         0.52054
C         34.08529        46.66718        -0.14610
C         35.33097        48.84442        -0.23576
C         34.07583        48.02199        -0.49623
C         35.36575        50.21924        -0.85710
C         37.85114        23.12370        -0.07221
C         36.61638        22.43135         0.02170
C         37.84574        24.53824        -0.01488
C         36.62341        25.23958         0.23556
C         37.85350        27.38993         0.16319
C         36.62832        26.65808         0.41588
C         37.89347        28.79753         0.22830
C         36.72981        29.53600         0.73949
C         37.82310        31.65866         0.17737
C         36.64855        30.98578         0.47285
C         37.77653        33.11918        -0.15564
C         36.54369        33.83204         0.32703
C         37.80827        35.92957         0.77658
C         36.54520        35.19550         0.41482
C         37.79216        37.41444         0.51489
C         36.53197        38.10680         0.55378
C         37.75791        40.26947         0.55736
C         36.53024        39.56221         0.57920
C         37.74639        41.70822         0.55189
C         36.52653        42.42172         0.57714
C         37.79215        44.56877         0.38016
C         36.51886        43.87237         0.48383
C         37.79012        46.00143         0.09295
C         36.60262        46.68442        -0.00200
C         37.84057        48.79768        -0.64437
C         36.54264        48.02476        -0.69380
C         37.82853        50.17374        -0.91158
C         36.53840        50.82711        -1.12467
C         40.37128        20.32067        -0.15295
C         39.16814        20.99966        -0.08708
C         40.31248        23.13695        -0.41418
C         39.11077        22.41078        -0.20070
C         40.29088        24.56935        -0.57206
C         39.05191        25.28231        -0.28980
C         40.08908        27.45769        -0.98561
C         39.02298        26.67445        -0.25850
C         40.26414        28.87839        -0.50240
C         39.08132        29.54461        -0.09160
C         40.27864        31.70053        -0.17104
C         39.06722        30.96895         0.00029
C         40.28572        33.13439        -0.05035
C         39.06380        33.85239         0.11169
C         40.28073        35.96925         0.27644
C         39.06168        35.22818         0.31283
C         40.25813        37.39345         0.37646
C         39.00244        38.11326         0.47309
C         40.22935        40.27242         0.50887
C         39.00555        39.55983         0.50612
C         40.21208        41.70972         0.54232
C         38.99248        42.42254         0.53172
C         40.26769        44.62985         0.64123
C         38.97988        43.86459         0.46535
C         40.26989        46.01614         0.03689
C         39.05944        46.68496        -0.15684
C         40.29010        48.80525        -0.54002
C         39.06073        48.09254        -0.46853
C         40.29181        50.21120        -0.78495
C         39.06002        50.90618        -0.97129
C         40.29289        52.99791        -1.26391
C         39.10277        52.31851        -1.20250
C         42.83618        20.33699        -0.35952
C         41.58331        21.02252        -0.33644
C         42.77698        23.15946        -0.66375
C         41.55698        22.44120        -0.48690
C         42.74219        24.57915        -0.88398
C         41.46737        25.25357        -0.90445
C         42.70296        27.47840        -1.32088
C         41.41162        26.71144        -1.19948
C         42.72606        28.91455        -0.92366
C         41.48325        29.58491        -0.63033
C         42.73730        31.71680        -0.39066
C         41.50192        31.00233        -0.38425
C         42.74584        33.13408        -0.21648
C         41.51099        33.84444        -0.05936
C         42.73813        35.98504         0.02956
C         41.51110        35.26739         0.07659
C         42.71889        37.40522         0.14738
C         41.48007        38.11413         0.29909
C         42.71310        40.23109         0.32389
C         41.47941        39.54273         0.39544
C         42.73550        41.68669         0.70583
C         41.46125        42.44833         0.43416
C         42.73706        44.52223        -0.12679
C         41.48644        43.81034         0.32176
C         42.75096        46.01410         0.06547
C         41.51074        46.70765        -0.08414
C         42.76012        48.81271        -0.42453
C         41.52959        48.11443        -0.35161
C         42.77738        50.22526        -0.68774
C         41.53638        50.91658        -0.85023
C         42.77644        52.99750        -1.19539
C         41.54159        52.31817        -1.10012
C         44.00964        21.02990        -0.48564
C         45.24054        23.17717        -0.74891
C         44.02167        22.45731        -0.62896
C         45.20499        24.58899        -0.96998
C         43.96219        25.27806        -1.02770
C         45.22597        27.45454        -0.90795
C         44.02983        26.72520        -1.46514
C         45.20622        28.84150        -0.75000
C         43.94637        29.57739        -0.75182
C         45.20184        31.69711        -0.43095
C         43.97327        31.00208        -0.51338
C         45.21067        33.13175        -0.32441
C         43.97346        33.85078        -0.22433
C         45.20680        35.99553        -0.19375
C         43.97973        35.27857        -0.13371
C         45.19655        37.42065        -0.08275
C         43.94437        38.12669         0.06982
C         45.18028        40.29485        -0.20227
C         43.92250        39.53859         0.14629
C         45.19301        41.72377         0.24701
C         43.99413        42.42304         0.34172
C         45.20136        44.54554         0.35821
C         44.00123        43.83881         0.29929
C         45.22789        45.99938         0.28002
C         43.96113        46.70155         0.10387
C         45.20952        48.80761        -0.15469
C         43.99555        48.12951        -0.12664
C         45.31184        50.15215        -0.82443
C         44.00600        50.92960        -0.79935
C         43.97902        52.30841        -1.06636
C         47.68939        23.19178        -0.80735
C         46.53043        22.54249        -0.55963
C         47.68725        24.56720        -1.43093
C         46.43454        25.31753        -1.07638
C         47.69025        27.40880        -0.68226
C         46.45868        26.72647        -0.89521
C         47.67982        28.82407        -0.48884
C         46.44014        29.53899        -0.53234
C         47.68239        31.63954        -0.36153
C         46.45034        30.96077        -0.43416
C         47.68760        33.10412        -0.50794
C         46.42638        33.84901        -0.35968
C         47.69286        35.97283        -0.33419
C         46.45699        35.27401        -0.31186
C         47.67914        37.44126        -0.35041
C         46.41736        38.14267        -0.07255
C         47.65892        40.24745         0.28503
C         46.45564        39.54802         0.07009
C         47.64819        41.68616         0.45485
C         46.42272        42.41349         0.34091
C         47.65739        44.51645         0.59483
C         46.42855        43.82928         0.49017
C         47.69220        45.99839         0.80789
C         46.41034        46.68465         0.40842
C         47.74545        48.79981         0.03363
C         46.42983        48.18499         0.47213
C         47.69557        50.23875        -0.09734
C         46.54090        50.89722        -0.37114
C         50.19051        24.69808        -1.40163
C         48.96309        25.33137        -1.17286
C         50.17500        27.35850        -0.53827
C         48.94884        26.68873        -0.77296
C         50.14493        28.73930         0.05551
C         48.90124        29.52543        -0.28202
C         50.17437        31.64363        -0.04451
C         48.91930        30.93569        -0.24611
C         50.21046        33.08346         0.02888
C         48.98822        33.83943        -0.32872
C         50.13342        35.99084         0.08448
C         48.95444        35.31027        -0.15422
C         50.29646        37.45106        -0.25554
C         48.97673        38.21016        -0.25572
C         50.09140        40.20420         0.75179
C         48.92958        39.57842         0.29760
C         50.03452        41.64755         1.23066
C         48.83296        42.37510         0.70294
C         50.11859        44.48002         0.42883
C         48.86438        43.79818         0.63919
C         50.10347        45.86306         0.08398
C         48.93441        46.63002         0.21642
C         50.20718        48.67068        -0.34429
C         48.92428        48.04964        -0.02650
C         51.39178        25.37153        -1.20833
C         52.67384        27.42410        -0.55819
C         51.41014        26.70608        -0.74634
C         52.65964        28.82154        -0.29236
C         51.41948        29.51411        -0.14304
C         52.65372        31.60600         0.33580
C         51.38572        30.90853         0.03610
C         52.64713        33.10534         0.50016
C         51.36842        33.79505         0.27765
C         52.64840        35.98688         0.40562
C         51.33562        35.26069         0.62018
C         52.64984        37.38337         0.55426
C         51.40663        38.12903         0.51097
C         52.54597        40.17308         1.34291
C         51.32611        39.46801         0.85838
C         52.56734        41.68587         1.24398
C         51.31499        42.38877         0.90617
C         52.62002        44.27280        -0.07021
C         51.32699        43.69378         0.46149
C         52.62454        45.79152        -0.11604
C         51.33287        46.45057        -0.59406
C         51.33016        47.95588        -0.54643
C         55.11834        27.45648        -0.65447
C         53.92093        26.76774        -0.71013
C         55.13627        28.86163        -0.44462
C         53.90442        29.54929        -0.25144
C         55.13269        31.67721         0.02446
C         53.92722        30.94384         0.01626
C         55.12066        33.13973         0.16256
C         53.91319        33.84681         0.31125
C         55.11870        36.00893         0.29406
C         53.88648        35.27896         0.33391
C         55.11127        37.43216         0.52284
C         53.88447        38.07816         0.72776
C         55.15667        40.22342         1.41688
C         53.85746        39.43990         1.29050
C         55.10282        41.75902         1.68993
C         53.85350        42.39815         1.08125
C         55.09706        44.42517         0.49149
C         53.85789        43.66365         0.56565
C         55.05605        45.77029         0.21737
C         53.81005        46.45347        -0.01942
C         56.35014        29.59943        -0.39718
C         56.34610        30.96217        -0.18603
C         56.32416        33.89652         0.06842
C         56.32431        35.27316         0.15070
C         56.31156        38.24604         0.47916
C         56.32593        39.56730         0.80187
C         56.36024        42.47842         1.27278
C         56.34216        43.73138         0.77786
O         36.32930        29.16521         2.10914
O         41.91153        27.14274        -2.52767
O         33.18291        37.73762        -0.68698
O         52.64990        32.22321         1.68964
O         52.42818        40.97027         2.55824
O         48.32200        38.07207        -1.56616
O         33.06861        28.03889         2.48842
O         31.69283        38.89982         2.35215
O         48.50452        33.50786        -1.68262
O         54.61029        39.47981         2.55188
O         31.12581        26.41434         2.57813
H         31.62294        27.08796         3.10539
O         37.85255        35.82775         2.25668
H         38.66896        36.28241         2.55584
O         49.84954        41.63324         2.68410
H         50.70059        41.30560         3.06854
O         27.42059        28.56026         1.53706
H         28.09517        28.06016         2.04574
O         55.01191        41.93299         3.12172
H         54.37391        41.25026         3.44276
O         52.66347        43.83349        -1.48639
H         53.50077        44.17738        -1.86649
O         35.22764        46.46307         1.95084
H         35.32760        47.45332         1.97630
O         33.85889        44.13002         2.34027
H         34.26295        45.01601         2.53497
O         35.44883        49.04503         1.20995
H         34.75873        49.68548         1.48255
O         44.33901        26.66148        -2.89821
H         43.47114        26.59269        -3.36255
O         40.38187        44.88175         2.09511
H         40.45824        44.01078         2.54020
O         51.22178        46.09979        -2.01187
H         51.42372        45.13457        -2.08631
O         47.80296        46.20357         2.28242
H         48.54995        45.64978         2.59870
O         42.78498        41.65466         2.18865
H         42.04515        41.08595         2.49214
O         39.46964        27.61220        -2.30985
H         40.21072        27.76810        -2.94238
O         50.06595        28.52063         1.52608
H         50.18977        29.39483         1.95516
O         51.15063        35.26732         2.09191
H         51.80862        34.64454         2.47206
O         31.52694        33.56544         2.86517
H         30.89740        34.25312         3.19235
O         46.33701        48.52355         1.91081
H         46.88114        47.85033         2.38945
O         45.13364        40.40822        -1.68249
H         45.44339        39.55344        -2.05339
O         35.11384        35.92269        -1.30294
H         34.33006        36.49988        -1.49364
O         31.16902        44.34968         1.87223
H         31.99950        44.22696         2.40256
O         42.71369        44.37849        -1.60398
H         42.92187        43.44249        -1.81501
O         50.79606        37.44042        -1.63684
H         49.99103        37.46486        -2.21022
O         47.63850        24.35506        -2.89175
H         46.73410        24.04379        -3.11038
O         45.54945        49.85082        -2.25765
H         44.75972        49.37452        -2.59273
O         37.62003        33.15308        -1.62652
H         37.29752        34.04798        -1.87184
O         36.28933        47.72997        -2.10645
H         37.06997        47.25224        -2.45783
O         27.57733        40.64988         2.16590
H         28.34022        41.18985         2.46477
O         30.02709        35.84955         2.78832
H         29.20482        36.35895         2.95619
H         27.36569        26.84009        -0.84057
H         26.09165        28.98814        -1.02491
H         26.16538        31.42496        -1.14753
H         25.98206        33.30015        -0.65711
H         25.90662        35.69973        -0.38468
H         25.78214        37.54327         0.03138
H         25.67144        39.92715         0.22245
H         25.84047        41.66219        -0.65405
H         26.00390        43.86170        -1.74800
H         27.33616        45.88114        -2.34282
H         29.46776        25.66675        -0.37787
H         29.42706        47.16570        -2.19854
H         32.86780        23.48937         0.14469
H         30.78212        24.56103         0.62892
H         32.88590        49.64545        -1.34390
H         30.86216        48.31674        -1.62780
H         34.49557        22.52333         0.22136
H         34.42908        50.78095        -0.98830
H         36.59180        21.33605        -0.04668
H         36.52581        51.85559        -1.51264
H         40.39384        19.22677        -0.04529
H         38.24894        20.42263         0.07708
H         40.29997        54.08246        -1.44586
H         38.16624        52.87742        -1.33247
H         42.84480        19.24212        -0.25851
H         42.78288        54.07853        -1.39584
H         44.95802        20.47679        -0.49478
H         44.92091        52.86187        -1.18396
H         48.65012        22.68241        -0.64320
H         46.56610        21.51647        -0.16693
H         48.61265        50.82534         0.07175
H         46.54268        51.99645        -0.39918
H         50.20850        23.66030        -1.76211
H         50.25302        49.76769        -0.40741
H         52.32942        24.84126        -1.42007
H         52.25617        48.48693        -0.81120
H         56.06960        26.91982        -0.78002
H         53.95121        25.68345        -0.88145
H         55.98647        46.35553         0.20735
H         53.85278        47.54580        -0.13564
H         57.30269        29.06884        -0.53945
H         57.30748        31.49223        -0.17093
H         57.28745        33.38333        -0.04893
H         57.28524        35.80431         0.11332
H         57.23328        37.79588         0.08320
H         57.23634        40.15579         0.61876
H         57.32273        42.01540         1.53514
H         57.28456        44.26789         0.58877
