         404
 CSIRO Nanostructure Databank - Neutral Graphene Oxide Data Set
C          2.09720         4.85202         4.95361
C          1.08404         5.68044         5.33294
C          1.88356         7.58215         3.99389
C          0.94901         7.02033         4.83462
C          1.84995         8.97535         3.54973
C          0.75161         9.78937         3.72905
C          1.61660        11.64046         2.35435
C          0.62355        11.07666         3.11047
C          1.39545        12.85635         1.46340
C          0.42973        13.86100         2.03985
C          1.51077        15.75561         0.91938
C          0.45751        15.17950         1.71191
C          1.46519        17.04948         0.36714
C          0.40100        17.96053         0.69479
C          0.98439        19.46137        -1.13069
C          0.22503        19.15570         0.04542
C          0.78982        20.67558        -1.87646
C          0.06664        21.79932        -1.48114
C          1.33002        23.62157        -2.70919
C          0.20361        23.08185        -2.06346
C          1.35618        25.05286        -2.99729
C          0.17794        25.73308        -3.35951
C          1.46810        27.73397        -3.77056
C          0.25186        27.04271        -3.83015
C          1.62669        30.09940        -3.79034
C          0.55978        30.96246        -4.06336
C          1.66981        32.59735        -2.73080
C          0.58817        32.24830        -3.54024
C          1.42852        34.25239        -1.07311
C          0.24813        34.97806        -0.83814
C          1.00946        35.43303         1.41790
C          0.00992        35.50973         0.42189
C          0.86745        36.17877         2.63810
C          4.28837         4.50587         3.67201
C          3.04092         5.25825         3.90665
C          4.18150         7.32523         2.87837
C          2.94730         6.70840         3.45027
C          4.08531         8.68550         2.30951
C          3.03580         9.54900         2.87472
C          3.92191        11.38123         1.29517
C          2.92081        10.96924         2.29350
C          3.83289        12.73523         0.79885
C          2.69957        13.50637         1.03532
C          3.87440        15.50639        -0.10623
C          2.73019        14.94547         0.75801
C          3.68499        16.78045        -0.86405
C          2.42166        17.46481        -0.64742
C          3.78469        19.35115        -2.51254
C          1.99933        18.52825        -1.47521
C          3.77665        20.73517        -2.79590
C          2.60242        21.48106        -2.97592
C          3.79457        23.63085        -2.93016
C          2.56861        22.90200        -2.91428
C          3.82587        25.04260        -2.83819
C          2.59313        25.76589        -2.96689
C          3.84697        27.94641        -2.97631
C          2.62997        27.17462        -3.19306
C          3.86678        29.40533        -2.91357
C          2.74345        30.40794        -2.97808
C          3.73030        32.28213        -1.40574
C          2.73434        31.73704        -2.37993
C          3.52285        33.12314        -0.29542
C          2.36513        33.97083        -0.05687
C          3.28606        34.80872         2.10824
C          2.20186        34.68705         1.17764
C          3.16958        35.67103         3.24285
C          1.90894        36.30681         3.51184
C          6.44814         4.24753         2.52150
C          5.30134         4.99935         2.86346
C          6.10572         6.85274         1.26812
C          5.31311         6.44499         2.49227
C          6.21091         8.35030         1.08450
C          5.09527         9.19071         1.49916
C          6.14995        11.10870         0.31304
C          5.02651        10.56841         1.03201
C          6.12528        12.44502        -0.13100
C          4.95867        13.27849         0.05875
C          6.06833        15.07403        -1.25243
C          4.91081        14.54908        -0.50305
C          6.07532        16.53091        -1.63718
C          4.81494        17.32385        -1.51224
C          6.20085        19.34111        -2.09083
C          4.91640        18.66020        -2.05201
C          6.27090        20.70808        -2.43255
C          5.07533        21.40134        -2.91670
C          6.31339        23.63183        -2.70532
C          5.07558        22.92414        -3.05117
C          6.28595        25.03138        -2.64156
C          5.06704        25.75668        -2.79840
C          6.33561        27.86292        -2.66389
C          5.05918        27.20432        -2.81537
C          6.34154        29.26940        -2.53186
C          5.13693        29.96105        -2.79286
C          6.11455        31.79189        -0.75327
C          5.07317        31.81313        -1.63620
C          5.87295        32.39866         0.56412
C          4.55310        33.11325         0.78588
C          5.60758        34.33356         2.71982
C          4.50936        34.12425         1.87541
C          5.54208        35.32075         3.76295
C          4.29703        35.92813         4.03848
C          8.55787         3.92473         1.35818
C          7.47938         4.74190         1.66959
C          8.43354         6.63212         0.37602
C          7.40540         6.09940         1.12258
C          8.47665         8.06417         0.08862
C          7.30941         8.88457         0.42758
C          8.48919        10.90580        -0.35554
C          7.32494        10.30504         0.11774
C          8.53826        12.31251        -0.58688
C          7.32831        13.05418        -0.60774
C          8.57869        15.07503        -1.23687
C          7.35915        14.40431        -1.02410
C          8.60247        16.49164        -1.52168
C          7.39100        17.21502        -1.67578
C          8.67252        19.31069        -1.88847
C          7.41939        18.62058        -1.84624
C          8.69412        20.72660        -2.07028
C          7.48931        21.44358        -2.35438
C          8.77097        23.55317        -2.45041
C          7.51054        22.87038        -2.49367
C          8.81535        24.99316        -2.58347
C          7.55445        25.73471        -2.22969
C          8.79991        27.90747        -2.60506
C          7.57918        27.18670        -2.59363
C          8.74103        29.29153        -2.16160
C          7.49970        29.92007        -1.99029
C          8.50434        31.39169        -0.12770
C          7.27143        30.80985        -0.77014
C          8.33213        32.29002         0.99872
C          7.06210        32.75331         1.36096
C          8.11956        34.08015         3.28968
C          6.86053        33.56537         2.56453
C          8.00684        35.30676         4.10384
C          6.72208        35.77789         4.42430
C         10.88214         3.71819         0.60982
C          9.52696         4.26217         0.26976
C         10.86735         6.42146        -0.41022
C          9.55832         5.75868        -0.06604
C         10.87379         7.89905        -0.66674
C          9.62906         8.65179        -0.42825
C         11.01211        10.82420        -0.74426
C          9.67319        10.09737        -0.68945
C         10.99379        12.25729        -0.26076
C          9.77079        12.99577        -0.71921
C         11.06576        15.06954        -1.02435
C          9.80349        14.36806        -0.99393
C         11.08057        16.43735        -1.33778
C          9.86945        17.16700        -1.56719
C         11.13137        19.31934        -1.72506
C          9.89761        18.58972        -1.75922
C         11.14448        20.71039        -1.78496
C          9.93134        21.42588        -2.00554
C         11.24106        23.47186        -2.55180
C          9.95410        22.82668        -2.25311
C         11.25104        24.91022        -2.99154
C          9.99675        25.68676        -2.78865
C         11.27082        27.74517        -3.09725
C         10.03517        27.14159        -2.81261
C         11.17237        29.80432        -2.14364
C          9.90777        29.99880        -1.62597
C         10.94455        31.35440         0.17503
C          9.76062        30.92779        -0.51895
C         10.78920        32.11778         1.41817
C          9.49399        32.72402         1.74384
C         10.61132        34.34567         3.26215
C          9.43239        33.68877         2.75334
C         10.48105        35.49549         4.13017
C          9.18579        35.94974         4.51874
C         13.31930         3.70687         0.62677
C         12.09535         4.38611         0.37815
C         13.37040         6.46140        -0.09090
C         12.14185         5.74801        -0.09661
C         13.44049         7.87820        -0.29396
C         12.23304         8.62930        -0.66276
C         13.45159        10.77037        -0.26947
C         12.25845        10.08445        -0.51692
C         13.48269        12.22278        -0.30599
C         12.29280        12.97078        -0.48934
C         13.52558        15.09121        -0.62846
C         12.29141        14.36295        -0.73803
C         13.60373        16.44726        -0.93430
C         12.39450        17.10441        -1.47865
C         13.66752        19.33653        -1.37718
C         12.41972        18.59717        -1.68045
C         13.67812        20.72988        -1.44223
C         12.37981        21.49242        -1.41452
C         13.64813        23.56051        -1.91312
C         12.48941        22.84423        -2.07054
C         13.56858        25.07321        -1.93877
C         12.62948        25.58635        -3.04196
C         13.72565        27.77526        -2.75416
C         12.53094        27.08889        -2.97362
C         13.63867        29.82420        -1.87831
C         12.36368        30.24045        -1.48009
C         13.42115        31.50802         0.35735
C         12.22086        31.00291        -0.26863
C         13.33521        32.45332         1.40026
C         12.04560        32.72243         2.04411
C         13.06896        34.63065         3.26622
C         11.90133        33.93123         2.86743
C         12.94161        35.77580         4.12715
C         11.64292        36.17682         4.54117
C         15.78231         3.64821         0.65714
C         14.56208         4.35068         0.46994
C         15.83732         6.43491         0.13268
C         14.59083         5.75598         0.18208
C         15.88008         7.86992         0.00743
C         14.65725         8.59598        -0.12236
C         15.91909        10.73551         0.01848
C         14.68453        10.03774        -0.12902
C         15.93637        12.19160         0.00248
C         14.72994        12.89534        -0.16234
C         16.01536        15.12629        -0.03023
C         14.69793        14.37010        -0.09854
C         16.04275        16.54076        -0.46946
C         14.83964        17.19456        -0.83497
C         16.08515        19.33982        -0.96919
C         14.86548        18.60919        -1.10089
C         16.10317        20.76547        -1.12304
C         14.89593        21.46777        -1.34386
C         16.05313        23.67084        -1.37289
C         14.88234        22.91392        -1.51514
C         16.08445        25.10148        -1.58550
C         14.90945        25.78883        -1.95009
C         16.06893        27.97534        -1.79267
C         14.90335        27.19193        -2.16800
C         16.03288        29.35288        -1.31206
C         14.81137        30.06740        -1.12023
C         15.86917        31.64793         0.44925
C         14.70028        31.08744        -0.11286
C         15.74808        32.67706         1.41407
C         14.49430        33.09381         1.89856
C         15.51419        34.85883         3.31506
C         14.37425        34.18441         2.85878
C         15.39727        36.03661         4.13294
C         14.10836        36.46758         4.53061
C         18.25559         3.58780         0.78662
C         17.01429         4.29522         0.51182
C         18.31356         6.37344        -0.00207
C         17.03804         5.68895         0.22958
C         18.36597         7.83860         0.08304
C         17.11947         8.57247         0.06908
C         18.41804        10.67224         0.32251
C         17.12433         9.98800         0.12827
C         18.46286        12.19520         0.24246
C         17.18518        12.92929         0.04395
C         18.53800        15.01723        -0.03876
C         17.23919        14.30625        -0.05093
C         18.55046        16.52832        -0.19177
C         17.27047        17.25030        -0.44668
C         18.54406        19.39461        -0.52011
C         17.28542        18.63734        -0.65861
C         18.54189        20.85090        -0.77289
C         17.34891        21.49968        -0.98236
C         18.60853        23.76070        -1.00808
C         17.28368        22.98403        -0.94604
C         18.57988        25.16584        -1.44494
C         17.32843        25.84128        -1.57997
C         18.54643        28.04347        -1.62106
C         17.28567        27.26356        -1.66903
C         18.50613        29.36685        -0.97113
C         17.22289        29.93663        -0.73102
C         18.34882        31.76626         0.47917
C         17.15496        31.12387         0.05462
C         18.23393        33.03985         1.22878
C         16.97202        33.23217         2.00008
C         18.04775        35.20507         3.23527
C         16.86200        34.35985         2.98568
C         17.87507        36.34689         4.07151
C         16.57505        36.72534         4.51928
C         19.46607         4.19240         0.73927
C         20.80405         6.36364         0.56334
C         19.61507         5.57294         0.24780
C         20.81109         7.71297         0.38411
C         19.61150         8.47699         0.12262
C         20.84706        10.62955        -0.09503
C         19.66999         9.92570         0.09550
C         20.87347        12.03801        -0.24859
C         19.73446        12.82394        -0.16814
C         20.87059        14.94247        -0.83875
C         19.75905        14.25747        -0.39151
C         20.89024        16.36428        -0.97767
C         19.80036        17.14875        -0.69868
C         20.97830        19.39432        -1.23590
C         19.85474        18.62864        -0.65627
C         20.97594        20.73688        -1.26009
C         19.88003        21.56426        -0.60376
C         21.00765        23.67471        -1.44608
C         19.86016        23.00037        -1.09817
C         21.00564        25.07763        -1.65659
C         19.82750        25.82219        -1.63454
C         21.03775        28.01556        -1.13143
C         19.86882        27.31036        -1.68822
C         20.95075        29.28612        -0.66729
C         19.69145        29.99398        -0.53335
C         20.78905        31.94926         0.67033
C         19.61724        31.25147         0.16423
C         20.73346        33.09272         1.40406
C         19.45972        33.77895         1.68938
C         20.43181        35.61664         3.12359
C         19.32250        34.84546         2.74078
C         20.27889        36.72038         3.97789
C         19.02527        37.09807         4.43547
O         17.87230        23.54738         0.26522
O          1.40110        20.77026        -3.14865
O         12.59826        17.68200        -2.82588
O         10.29537        10.52272        -1.96200
O         19.30974        27.94660        -2.88388
O          3.55411        10.72093         3.59450
O         11.43241        31.50893         2.59350
O         18.49039        11.50913         1.53606
O          7.34385        32.95382         3.80596
O          2.60815        18.62345        -2.73709
O         11.20431        23.85876        -4.00774
O         11.29950        29.12176        -3.36405
O         17.10144        32.95261         3.43417
O         19.37331        19.07577         0.66631
O          5.42505         7.25398         3.70419
O          2.40294         5.63897         2.61442
O          5.27628        31.34527        -2.94212
O         18.70965        34.19946         0.47357
O          5.88810        15.46955        -2.65997
O          5.22598        22.05537        -4.22680
O          1.74495        33.96599        -2.40138
O         13.77911        29.13425        -3.08811
O         19.09720         5.79409        -1.10004
O          1.56812        28.90580        -4.51743
O          3.87672        15.66702         1.35943
O          9.97433         5.86685        -1.46915
O         18.68306        15.90811         1.12733
O          4.78594        31.75290         1.33927
O         11.57126         8.18543        -1.90942
O         15.19274        14.91804         1.17169
O          9.06823         3.54499        -0.92525
H          9.41147         4.05252        -1.69815
O          5.27368         6.37562         0.15343
H          5.77861         6.49896        -0.67839
O         10.86947        12.12772         1.20369
H         10.97106        13.02103         1.59586
O         12.17581        21.82551         0.01926
H         12.13035        20.98115         0.51678
O         20.18471        21.64380         0.81477
H         20.01397        20.74333         1.18766
O         13.25024        25.29211        -4.30978
H         12.71689        24.57249        -4.72852
O          7.50140        25.72442        -0.74594
H          8.14650        26.38797        -0.41942
O          0.76316        12.32807         0.24325
H          0.52820        13.09121        -0.32581
O         12.93334        25.44406        -0.67693
H         13.39848        24.97824         0.05027
O          6.81910        29.77028         0.19155
H          6.49977        30.21999         1.00546
H          2.23786         3.87800         5.44458
H          0.36853         5.34508         6.09739
H          0.12114         7.62861         5.22522
H         -0.12797         9.40321         4.26344
H         -0.35775        11.56634         3.18670
H         -0.41051        13.48614         2.64143
H         -0.35905        15.82716         2.06373
H         -0.26655        17.71298         1.53070
H         -0.57050        19.84069         0.37020
H         -0.64465        21.70693        -0.64630
H         -0.57578        23.80746        -1.78080
H         -0.77771        25.19301        -3.40360
H         -0.62485        27.52629        -4.27993
H         -0.24151        30.63288        -4.73613
H         -0.18345        32.98946        -3.78149
H         -0.45834        35.14103        -1.66229
H         -0.90885        36.07976         0.62011
H         -0.08490        36.69557         2.82636
H          4.35653         3.47862         4.06259
H          1.80830        36.92157         4.41771
H          6.53175         3.21208         2.88528
H          4.22035        36.64698         4.86761
H          8.61507         2.91881         1.80029
H          6.62696        36.62683         5.11826
H         10.92442         2.67714         0.96457
H          9.10974        36.85251         5.14353
H         13.29170         2.65106         0.93427
H         11.54266        37.05125         5.20144
H         15.75271         2.57727         0.90597
H         14.01322        37.35598         5.17229
H         18.17747         2.54390         1.12536
H         16.48179        37.61108         5.16539
H         20.36888         3.65759         1.07069
H         21.69344         5.85008         0.95752
H         21.73866         8.26494         0.59019
H         21.79465        10.08788        -0.22008
H         21.84023        12.50453        -0.48323
H         21.79091        14.39708        -1.08839
H         21.83037        16.83030        -1.30585
H         21.80488        18.83780        -1.70251
H         21.83551        21.25181        -1.71254
H         21.97555        23.15686        -1.48177
H         21.96663        25.57805        -1.83534
H         21.99997        27.48649        -1.07238
H         21.86289        29.76029        -0.28021
H         21.77884        31.50838         0.48681
H         21.66438        33.50521         1.82054
H         21.43207        35.36839         2.74268
H         21.16455        37.30424         4.26489
H         18.91168        37.97905         5.08301
