         621
 CSIRO Nanostructure Databank - Neutral Graphene Oxide Data Set
C          6.02495        31.75241         0.59030
C          5.96755        33.10210         0.66019
C          8.47804        27.53896         0.07752
C          8.43062        28.90729        -0.08140
C          7.25292        29.67308         0.26761
C          8.18959        31.71802        -0.81571
C          7.14913        31.01733         0.03967
C          8.23205        33.25379        -0.59268
C          7.03679        33.96696         0.11727
C          8.40869        36.02525         0.34181
C          7.27295        35.28209         0.68067
C          8.51842        37.40544         0.67465
C         10.90624        23.23648        -0.14019
C         10.88628        24.63771        -0.22326
C          9.69736        25.40209        -0.02115
C         10.88311        27.50288        -0.54307
C          9.68087        26.78883        -0.16216
C         10.85287        28.91178        -0.71035
C          9.61552        29.63826        -0.50855
C         10.73549        31.74630        -1.10979
C          9.53263        31.00848        -0.72362
C         10.70640        33.25707        -1.00437
C          9.49777        33.98392        -0.56539
C         10.75702        36.13126        -0.45625
C          9.55628        35.35829        -0.26012
C         10.81867        37.51097        -0.20929
C          9.66134        38.16072         0.36772
C         10.84986        40.34165         0.33961
C          9.74453        39.54244         0.67702
C         10.84164        41.68969         0.84528
C         13.36668        18.92427        -0.03267
C         13.28888        20.28829        -0.35269
C         12.11665        21.06827        -0.21686
C         13.29120        23.19632        -0.70846
C         12.09090        22.48023        -0.38634
C         13.32025        24.60264        -0.71807
C         12.10017        25.35501        -0.53213
C         13.31254        27.41733        -1.19748
C         12.08562        26.74471        -0.70596
C         13.28734        28.91165        -1.40565
C         12.04750        29.65426        -1.05156
C         13.28143        31.82226        -1.30649
C         12.02946        31.03141        -1.14122
C         13.28518        33.21632        -0.77486
C         11.99471        33.93516        -0.68322
C         13.29420        36.11313        -0.90261
C         11.97956        35.41158        -0.86914
C         13.27645        37.61243        -0.81510
C         11.99998        38.30955        -0.47543
C         13.26321        40.44165        -0.53661
C         12.00787        39.69692        -0.29343
C         13.28319        41.79474        -0.77945
C         11.63405        42.72214         0.31633
C         13.22602        44.65665         0.34960
C         12.09539        43.91845         0.87338
C         13.29610        46.03939         0.64690
C         15.83241        14.65692         0.36094
C         15.81303        16.04110         0.09978
C         14.61181        16.79299         0.13393
C         15.81503        18.84677        -0.47366
C         14.58385        18.17861        -0.13876
C         15.80796        20.24234        -0.74288
C         14.50901        20.92967        -0.88201
C         15.80412        23.14095        -0.99122
C         14.51057        22.44680        -1.05738
C         15.77492        24.53946        -0.88182
C         14.57097        25.29008        -0.85407
C         15.80535        27.43916        -0.96728
C         14.61425        26.72912        -0.98670
C         15.87825        28.87350        -1.32133
C         14.60558        29.64471        -1.51890
C         15.79832        31.83467        -0.76860
C         14.62257        31.14340        -1.36495
C         15.78942        33.20919        -0.51253
C         14.56748        33.97586        -0.75209
C         15.72471        36.04574        -0.10899
C         14.54186        35.34095        -0.64388
C         15.73996        37.54367        -0.03514
C         14.56488        38.31377        -0.54634
C         15.75688        40.44165        -0.36649
C         14.54728        39.78179        -0.38012
C         15.85098        41.87504        -0.71648
C         14.47198        42.65619        -0.84693
C         15.38433        44.95028        -0.69055
C         14.30701        44.09132        -0.44000
C         15.62242        46.21205        -0.09301
C         14.43343        46.85211         0.39863
C         15.63779        48.97748         0.37109
C         14.43515        48.26899         0.51112
C         15.68842        50.40883         0.15855
C         18.23775        10.27095         0.75020
C         18.17907        11.66868         0.33152
C         16.99945        12.50392         0.51611
C         18.30263        14.56469         0.07923
C         17.02967        13.88245         0.30863
C         18.28305        16.01093        -0.13391
C         17.05840        16.72014        -0.19171
C         18.27760        18.76324        -0.81590
C         17.05475        18.11404        -0.48339
C         18.24777        20.19701        -1.18876
C         16.99980        20.95424        -0.95211
C         18.28330        23.06654        -0.95257
C         17.03626        22.38953        -1.00171
C         18.29459        24.53877        -0.97503
C         17.03547        25.25616        -0.67021
C         18.38231        27.45184        -0.68688
C         17.06732        26.75777        -0.63534
C         18.40762        28.92592        -0.72395
C         17.13692        29.65031        -1.01041
C         18.16888        31.64156         0.25311
C         16.96859        31.00496        -0.38701
C         18.08985        33.11600         0.53185
C         16.95514        33.90239        -0.01368
C         18.14511        36.05065         0.48010
C         16.99226        35.30763         0.08196
C         18.18580        37.49786         0.36760
C         17.03208        38.23381         0.09130
C         18.26841        40.39459        -0.11419
C         16.96489        39.73953         0.25845
C         18.31022        41.87028        -0.11148
C         17.13633        42.57560        -0.44928
C         18.31934        44.75608        -0.26321
C         17.26380        43.94936        -0.75627
C         18.21143        46.13756         0.02917
C         16.91532        46.84729         0.05297
C         18.05008        48.94831         0.83312
C         16.86257        48.21771         0.40702
C         18.08566        50.45254         0.64760
C         16.88177        51.11444         0.10235
C         18.21885        53.18113        -0.28006
C         17.01094        52.48858        -0.30084
C         18.27153        54.60272        -0.54169
C         20.72792         6.00905         0.65209
C         20.67034         7.42584         0.79235
C         19.48942         8.15881         0.81264
C         20.69543        10.35871         0.90262
C         19.45931         9.60152         0.82613
C         20.76383        11.72975         0.60421
C         19.52926        12.40437         0.13916
C         20.80347        14.54811        -0.25698
C         19.49546        13.87158         0.09015
C         20.75884        16.00800         0.17601
C         19.49885        16.71031        -0.28335
C         20.79966        18.72679        -0.93566
C         19.49676        18.06393        -0.67738
C         20.85054        20.21323        -1.22396
C         19.55448        20.96275        -1.33544
C         20.74986        23.07128        -0.73863
C         19.55531        22.40776        -1.00608
C         20.73970        24.49387        -0.33803
C         19.56356        25.29729        -0.75322
C         20.81057        27.43441        -0.22231
C         19.54330        26.75529        -0.47544
C         20.77870        28.87997        -0.00822
C         19.58236        29.60086        -0.11819
C         20.66572        31.65754         0.64200
C         19.51013        30.98198         0.22769
C         20.61043        33.07840         1.09818
C         19.30561        33.83234         1.02648
C         20.66425        36.09673         1.11047
C         19.31717        35.34358         1.01738
C         20.64975        37.53855         0.76339
C         19.48057        38.19111         0.48352
C         20.79836        40.39255         0.25211
C         19.53477        39.62873         0.08628
C         20.78589        41.84430         0.10965
C         19.56515        42.53635        -0.06074
C         20.83205        44.74815         0.26694
C         19.58927        44.00380        -0.18793
C         20.63959        46.14156         0.69578
C         19.41123        46.79147         0.54594
C         20.59905        48.97467         1.25179
C         19.31823        48.18393         1.04132
C         20.62580        50.45955         1.10011
C         19.44859        51.03396         0.32889
C         20.63607        53.21692         0.20910
C         19.45737        52.53384         0.15255
C         20.76465        54.55574        -0.47567
C         19.45595        55.30649        -0.52598
C         20.69782        57.43401        -0.49340
C         19.52054        56.73905        -0.64233
C         20.71333        58.94313        -0.49132
C         23.24092         3.22091         0.65509
C         22.00627         3.89052         0.65750
C         23.22219         6.03574         0.50554
C         21.93914         5.29972         0.62961
C         23.22485         7.51338         0.76354
C         21.92514         8.13715         1.13858
C         23.21721        10.34935         1.38212
C         21.90751         9.62794         1.30183
C         23.22516        11.83764         1.16181
C         21.97119        12.49465         0.71000
C         23.23916        14.58862         0.37458
C         22.04116        13.85863         0.31654
C         23.26554        16.00178         0.05015
C         22.04395        16.70865        -0.15391
C         23.23987        18.81456        -0.44894
C         22.03847        18.07352        -0.46177
C         23.21482        20.25434        -0.54409
C         22.07652        20.95026        -0.84975
C         23.28927        23.14001        -0.39283
C         22.09421        22.45058        -1.03900
C         23.28812        24.52558        -0.07586
C         21.99480        25.24717        -0.01728
C         23.32648        27.41286         0.02198
C         21.98544        26.72568        -0.09290
C         23.21060        28.85085         0.48246
C         21.97471        29.55346         0.38989
C         23.15614        31.64647         0.84083
C         21.92473        30.95480         0.67128
C         23.11866        33.11621         0.66010
C         21.90203        33.87469         1.07717
C         23.15666        36.04365         0.79509
C         21.92014        35.35285         0.97567
C         23.19886        37.51078         0.85631
C         21.91622        38.29588         1.09306
C         23.25209        40.38247         0.41686
C         21.94876        39.70139         0.53597
C         23.28328        41.87247         0.44038
C         21.98505        42.58995         0.43167
C         23.09922        44.61238         1.46672
C         21.97381        43.94215         0.70831
C         23.07412        46.10904         1.28555
C         21.85777        46.82005         1.11803
C         23.07376        49.01462         1.24433
C         21.84317        48.22771         1.20524
C         23.01379        50.32444         0.50302
C         21.82412        51.12148         0.98444
C         23.16040        53.17664         0.34179
C         21.85620        52.62375         0.89170
C         23.17216        54.66198         0.32221
C         21.93831        55.39315        -0.01744
C         23.19870        57.59308         0.10203
C         21.94094        56.75527        -0.15957
C         23.20832        58.88144        -0.69351
C         21.99698        59.48865        -1.06753
C         23.23278        61.20723        -2.25001
C         22.01628        60.65000        -1.85149
C         24.45982         3.89652         0.65612
C         25.69038         6.04402         0.72407
C         24.50904         5.31771         0.63479
C         25.73953         7.47701         0.87934
C         24.49600         8.22570         1.04321
C         25.74001        10.35505         1.34514
C         24.48207         9.58662         1.23832
C         25.72968        11.79794         0.98709
C         24.52571        12.49180         0.90840
C         25.76887        14.57005         0.33720
C         24.51569        13.98827         0.93055
C         25.80453        16.06974         0.25188
C         24.47851        16.71232        -0.05488
C         25.70107        18.81926        -0.47527
C         24.48463        18.11803        -0.28249
C         25.68600        20.26867        -0.62257
C         24.46461        20.95397        -0.07831
C         25.71993        23.11913        -0.04758
C         24.48687        22.44045        -0.26297
C         25.71265        24.51441         0.25587
C         24.45069        25.18380         0.32808
C         25.62694        27.28756         1.13204
C         24.28959        26.58428         0.89948
C         25.61903        28.79227         1.18184
C         24.37704        29.52485         0.84519
C         25.66493        31.64466         0.85074
C         24.38925        30.95543         0.88488
C         25.64971        33.12303         0.90568
C         24.39759        33.86661         0.57546
C         25.64972        36.01889         0.53390
C         24.36913        35.33394         0.69366
C         25.68251        37.50736         0.67666
C         24.39356        38.17864         0.91492
C         25.73924        40.37859         1.14919
C         24.50653        39.64850         0.73062
C         25.73177        41.75793         1.29283
C         24.54726        42.55433         0.86977
C         25.63673        44.64561         1.48339
C         24.46673        43.98078         1.25320
C         25.61426        46.10482         1.72151
C         24.29677        46.82671         1.64695
C         25.53790        48.87153         0.70651
C         24.35861        48.30132         1.41094
C         25.53594        50.32973         0.46153
C         24.35468        51.02700         0.46143
C         25.60043        53.10412        -0.20028
C         24.31998        52.45842         0.21756
C         25.67095        54.60136        -0.25110
C         24.47015        55.38414         0.15517
C         25.70728        57.43265        -0.35783
C         24.48120        56.81668        -0.14751
C         25.71855        58.94337        -0.44985
C         24.43503        59.47761        -1.04337
C         24.43653        60.63978        -1.82702
C         26.95406         8.14526         0.87762
C         28.24641        10.34294         0.77808
C         27.05725         9.57701         1.15489
C         28.22793        11.73373         0.66291
C         26.96855        12.45471         0.68722
C         28.20583        14.44846        -0.20565
C         26.93657        13.83302         0.28334
C         28.22855        15.89684        -0.60466
C         26.92250        16.62840        -0.61192
C         28.23860        18.83971        -0.72224
C         26.94795        18.11591        -0.77361
C         28.25005        20.23850        -0.60872
C         26.98862        21.02243        -0.66245
C         28.17257        23.11076        -0.01701
C         26.97431        22.43424        -0.19095
C         28.18770        24.50658         0.34768
C         26.95148        25.18201         0.48211
C         28.20003        27.36767         0.79944
C         26.94571        26.58638         0.94116
C         28.19942        28.77079         0.85074
C         26.94381        29.53070         1.09713
C         28.15033        31.67464         0.63817
C         26.89614        30.98537         0.82447
C         28.18523        33.09670         0.56710
C         26.95313        33.85624         0.83300
C         28.11420        36.01818         0.49822
C         26.93380        35.30953         0.60279
C         28.18077        37.42882         0.73264
C         26.94027        38.11681         1.26261
C         28.19087        40.27733         1.28587
C         26.97772        39.63189         1.21314
C         28.28923        41.68149         1.71256
C         26.91797        42.47884         1.79299
C         27.93893        44.74752         2.22270
C         26.90272        43.96998         1.74550
C         28.10127        46.18267         1.90609
C         26.86228        46.84217         1.49682
C         28.11750        48.85351         0.64279
C         26.85306        48.11665         0.80811
C         28.10050        50.18733         0.33655
C         26.82470        50.88099        -0.12498
C         28.09600        53.06895        -0.09905
C         26.87541        52.38206        -0.07721
C         28.13740        54.50787        -0.17962
C         26.97874        55.29360        -0.21848
C         26.93481        56.70447        -0.31247
C         29.46126        12.44887         0.47729
C         30.67814        14.55890        -0.00762
C         29.49579        13.80954         0.14214
C         30.69207        15.96290        -0.29715
C         29.47833        16.67257        -0.51845
C         30.69252        18.81960        -0.50191
C         29.46299        18.09860        -0.59933
C         30.69251        20.24425        -0.45774
C         29.47030        20.94834        -0.47995
C         30.73572        23.12769        -0.05652
C         29.44367        22.42306        -0.35743
C         30.70140        24.42628         0.73728
C         29.42227        25.21761         0.53082
C         30.66803        27.36094         0.64992
C         29.42750        26.63471         0.65878
C         30.64386        28.77639         0.62236
C         29.41565        29.49551         0.65763
C         30.54028        31.66430         0.13290
C         29.38022        30.94821         0.49543
C         30.56123        33.08556         0.01438
C         29.35266        33.80001         0.26100
C         30.61724        35.95398         0.48809
C         29.34380        35.29264         0.02010
C         30.64476        37.42317         0.54184
C         29.41430        38.09609         0.77020
C         30.75054        40.25994         0.94728
C         29.45772        39.51502         1.16338
C         30.62772        41.74382         0.59607
C         29.57735        42.38765         1.49645
C         30.94790        44.49631         1.59448
C         29.82252        43.62690         1.98791
C         30.77983        46.02932         1.40792
C         29.46463        46.79604         1.51413
C         30.64038        48.82441         0.50625
C         29.37209        47.99071         0.51399
C         30.58252        50.20918         0.29051
C         29.35152        50.92793         0.19446
C         29.32188        52.30876        -0.01459
C         31.91363        16.69283        -0.30889
C         33.16518        18.82015        -0.43331
C         31.93392        18.09115        -0.41649
C         33.19781        20.21346        -0.37871
C         31.94623        20.96147        -0.28760
C         33.24597        23.00211         0.24953
C         31.96312        22.30996         0.00492
C         33.26958        24.49767         0.46264
C         31.96657        25.23832         0.53829
C         33.20465        27.33844         0.51349
C         31.92144        26.60712         0.59450
C         33.20309        28.81537         0.31298
C         31.90697        29.54480         0.49930
C         32.93933        31.56309        -0.76916
C         31.85701        30.99131         0.13846
C         32.95115        33.08771        -0.77712
C         31.76764        33.79462        -0.29234
C         33.09270        35.99686        -0.07163
C         31.88514        35.19126         0.15628
C         33.10183        37.35449         0.17402
C         31.89008        38.10903         0.45680
C         33.16905        40.26180         0.31598
C         31.94319        39.51956         0.50446
C         33.16249        41.71864         0.38519
C         31.98926        42.43107         0.68336
C         33.21117        44.57345         0.51444
C         32.05982        43.82226         0.91325
C         33.09115        46.00333         0.42658
C         31.91027        46.70150         0.68718
C         31.84689        48.10646         0.46849
C         34.41666        20.94454        -0.47724
C         35.60640        23.09551        -0.54692
C         34.46065        22.33128        -0.27643
C         35.69582        24.50508        -0.37941
C         34.52468        25.23638         0.11311
C         35.60171        27.47751         0.12782
C         34.44877        26.61614         0.16483
C         35.61659        28.78498        -0.31327
C         34.28286        29.41432        -0.61210
C         35.51137        31.63008        -0.54428
C         34.30613        30.92232        -0.57450
C         35.51808        33.06848        -0.56927
C         34.29041        33.82278        -0.82501
C         35.59086        36.02899        -0.58346
C         34.28692        35.31583        -0.62463
C         35.67418        37.40847        -0.01956
C         34.37899        38.10907         0.24739
C         35.70762        40.27214         0.37043
C         34.37411        39.57530         0.22397
C         35.60934        41.73763         0.05981
C         34.41200        42.43790         0.20756
C         34.37049        43.87036         0.15072
C         36.87321        25.11634        -0.90708
C         38.08116        27.35080        -1.31249
C         37.29448        26.43294        -0.60869
C         38.02253        28.77074        -1.07761
C         36.83470        29.47350        -0.63255
C         37.99065        31.61100        -0.89617
C         36.79652        30.90299        -0.65311
C         38.10020        33.03706        -0.58005
C         36.75785        33.81900        -0.35455
C         38.05415        35.96114        -0.69521
C         36.83995        35.25768        -0.55953
C         38.05090        37.39093        -0.73036
C         36.90594        38.16889        -0.37695
C         36.86326        39.55012        -0.29715
C         39.12656        29.54821        -1.51664
C         40.33577        31.71514        -1.69206
C         39.15481        30.93708        -1.37216
C         40.38278        33.07102        -1.54946
C         39.26133        33.82359        -1.03339
C         39.25705        35.20395        -0.96623
O         26.64571        17.17058        -1.91356
O         23.92117        55.16502         1.51897
O         15.35516        36.76459         1.16084
O         30.18274        23.17108        -1.40649
O         36.79012        26.93042         0.61398
O         26.28275        29.26726         2.38711
O         12.59605        35.74159        -2.15298
O         18.80630        20.56773        -2.51279
O         33.57531        28.27634         1.61145
O         25.46387        53.84117        -1.48220
O         19.83446        35.84000         2.29807
O         14.11386        38.09282        -1.93147
O         31.30208        45.46480         2.63477
O         24.86639        46.45909         2.97537
O         27.57016        41.91251         2.95527
O         33.43393        23.56638         1.59856
O         17.18256        30.91055         1.07261
O         21.35590        33.33215         2.32902
O         29.27848        47.40325        -0.75433
O         24.20589        42.40627        -0.56746
O         23.68831        33.44935        -0.66064
O         19.08423        25.04670        -2.11767
O         28.95033        46.99903         2.83155
O         21.81965         8.72174         2.47062
O         25.73580        36.95499        -0.65741
O         32.17360        30.60504         1.50479
O         18.30343        33.35410         1.97730
O         18.85319        11.80906        -0.99991
O         10.57339        32.63548        -2.31621
O         26.20538        20.78954        -1.88424
O         19.81692        48.40028         2.38836
O         21.00157        19.23894        -2.30021
O         30.21479        41.82648        -0.73978
O         19.84235        50.47635        -0.93008
O         21.11156        24.72955         1.06641
O         26.55085        10.00190         2.49146
O         37.61361        33.35467         0.74375
O         28.97081        44.17453         2.96508
O         26.28996        33.59241         2.13985
O         20.55509        44.52048        -1.16026
O         14.01929        31.76384        -2.56114
O         28.19959        14.83362        -1.62635
O         25.96260        48.06656        -0.42750
O         23.19660         7.00623        -0.61371
O         23.19716        11.26857         2.53030
O         30.35687        39.84586         2.29199
O         23.81759        49.08617         2.51469
O         26.30353        26.71486         2.28950
O         12.09210        42.47398        -0.99880
O         34.81999        35.99084        -1.83817
O         14.34007        21.53897        -2.20263
O         18.12579        29.53428        -2.07040
O          7.18695        33.92526        -1.34276
O         24.09408        39.87384        -0.68153
O         18.94821        39.81757        -1.26607
O         15.37873        29.19084        -2.66364
O         33.53086        33.51878        -2.06504
O         13.09198        28.00092        -2.53102
O         15.28315        42.28241        -1.99695
O         31.34829        35.31424         1.55382
O         17.83490        49.88949         1.95039
O         16.35159        44.53579        -1.61687
O         35.25240        37.55557         1.36706
O         17.01696        25.95956         0.62220
O         12.59580        33.38739         0.53514
O         23.20747        57.94615         1.52751
H         23.31952        57.09362         2.01544
O         22.68875        50.02514        -0.88821
H         21.71128        50.19358        -1.03394
O         21.78747        53.14708         2.26217
H         22.49006        52.71185         2.78979
O         21.10175        54.22100        -1.87442
H         20.50737        53.49195        -2.15770
O         26.85328        37.78546         2.68582
H         27.59975        38.22023         3.15177
O         22.80207        44.40076         2.89577
H         23.42008        44.98774         3.39562
O         26.16626        16.51061         1.60955
H         25.61979        15.97206         2.23459
O         36.00976        40.19199         1.82107
H         35.89383        39.24056         2.07057
O         29.36292        35.48543        -1.43412
H         28.45100        35.37845        -1.77910
O         32.47830        31.18120        -2.11389
H         32.86992        31.84969        -2.72842
O         20.62499        59.37713         0.88392
H         21.42422        59.03859         1.35083
O         26.74058        50.54939        -1.54965
H         26.61112        49.57121        -1.60784
O         20.91128        14.52214        -1.69983
H         20.68762        13.62100        -2.01457
O         23.93857        27.44311        -1.30175
H         23.31663        27.87721        -1.92334
O          7.77703        31.52569        -2.19739
H          8.42874        31.99813        -2.76260
O         25.83239        59.45687         0.89447
H         25.02140        59.17976         1.37939
O         24.53813        20.74389         1.37125
H         23.83600        21.28017         1.79659
O         16.83367        39.96217         1.70392
H         16.20188        39.30197         2.06230
O         33.91273        28.96358        -1.95470
H         33.29321        29.64144        -2.33232
O         24.54172        14.37754         2.38230
H         24.00343        13.71767         2.87418
O         30.68200        23.98780         2.13368
H         30.95692        24.73988         2.69955
O         20.68164        15.97509         1.63630
H         20.72653        16.89513         1.97022
O         23.65561        26.46940         2.18778
H         24.36119        26.26827         2.84296
O         21.84794        38.49929         2.55005
H         21.54285        37.66111         2.96201
O         22.30789        22.66948        -2.47428
H         21.64500        22.14044        -2.96910
H          5.21773        31.15633         1.04359
H          5.12021        33.59147         1.16330
H          7.57765        26.99683         0.40348
H          6.44407        29.15261         0.80457
H          6.52890        35.70684         1.37135
H          7.65543        37.90629         1.13820
H          9.97763        22.70138         0.10907
H          8.76619        24.87803         0.24171
H          8.88878        40.01538         1.18201
H         10.18775        41.90193         1.70516
H         12.46170        18.40077         0.31117
H         11.19164        20.56869         0.10943
H         11.60098        44.32186         1.76955
H         12.41863        46.51135         1.11362
H         14.88259        14.14001         0.56572
H         13.67158        16.28016         0.38699
H         13.48895        48.80513         0.67435
H         14.74301        50.91696        -0.08563
H         17.29832         9.71498         0.88758
H         16.06615        12.02607         0.85037
H         16.10022        53.02353        -0.61294
H         17.32152        55.14175        -0.68524
H         19.78259         5.44740         0.59969
H         18.53203         7.63361         0.67505
H         18.58412        57.29441        -0.80945
H         19.82356        59.35272        -1.02849
H         23.24347         2.12208         0.68207
H         21.07444         3.30891         0.70370
H         23.24326        62.11491        -2.86918
H         21.06838        61.12448        -2.14367
H         25.40032         3.32871         0.69853
H         26.64638         5.49893         0.74354
H         26.60804        59.30499        -1.02144
H         25.39308        61.10773        -2.10102
H         27.87035         7.60052         0.60441
H         29.18597         9.79894         0.59745
H         29.12212        54.99844        -0.20434
H         27.87807        57.26886        -0.36465
H         30.40577        11.89923         0.60640
H         31.64254        14.06370         0.18289
H         31.52420        50.76327         0.14451
H         30.27423        52.85616        -0.08828
H         32.86258        16.14843        -0.19363
H         34.11103        18.25913        -0.46833
H         33.94337        46.56341         0.01108
H         32.78690        48.64033         0.25235
H         35.33968        20.40883        -0.74612
H         36.49113        22.57099        -0.94006
H         36.54180        42.29712        -0.11361
H         35.28493        44.42108        -0.11382
H         37.47981        24.51353        -1.60118
H         38.74954        26.99480        -2.11150
H         38.99412        37.91332        -0.94947
H         37.76835        40.13460        -0.52441
H         40.01592        29.03211        -1.90781
H         41.21361        31.17710        -2.07858
H         41.29044        33.62348        -1.83334
H         40.16659        35.75679        -1.24621
