         595
 CSIRO Nanostructure Databank - Neutral Graphene Oxide Data Set
C         23.13651        69.38022         2.22630
C         23.24634        70.52811         3.04795
C         22.12896        71.05705         3.72028
C         23.47011        72.82668         4.70870
C         22.24916        72.20039         4.53071
C         25.31503        65.78262        -0.19276
C         25.33638        67.11418         0.14077
C         24.19710        67.67791         0.80697
C         25.45886        69.72999         1.41723
C         24.22268        68.90696         1.46008
C         25.64370        70.68981         2.52518
C         24.55073        71.14012         3.25110
C         25.87626        72.98458         4.22712
C         24.66386        72.31008         4.10744
C         27.83463        61.53839        -0.17734
C         27.76175        62.94080        -0.44224
C         26.55524        63.63116        -0.44488
C         27.74612        65.83796        -1.08119
C         26.46825        65.06422        -0.75380
C         27.77118        67.34298        -0.76874
C         26.53902        67.95705        -0.13704
C         28.00844        69.76180         1.03637
C         26.66037        69.24554         0.65214
C         28.11777        70.81783         1.92569
C         26.98865        71.16423         2.81649
C         28.35826        73.18673         3.68599
C         27.11903        72.39572         3.76308
C         30.36009        57.22170        -0.03410
C         30.33389        58.60041        -0.20319
C         28.99539        59.31134        -0.11461
C         30.24106        61.48464        -0.53335
C         29.04270        60.81883        -0.27903
C         30.27372        62.95848        -0.54412
C         28.98969        63.67187        -0.69705
C         30.23026        65.60449        -1.47264
C         28.99290        65.01206        -1.04217
C         30.25413        67.65068        -1.13044
C         29.06981        68.05345        -0.48719
C         30.46192        69.68293         0.63993
C         29.16868        69.15278         0.39884
C         30.58589        70.89305         1.47467
C         29.39220        71.56236         2.10815
C         30.67785        73.59062         3.05200
C         29.49010        72.73175         3.06703
C         32.77718        52.89131        -0.08707
C         32.76657        54.30845        -0.15027
C         31.57742        55.06555        -0.02442
C         32.79447        57.18919        -0.39276
C         31.56870        56.47262        -0.14773
C         32.76984        58.61840        -0.55100
C         31.53930        59.30202        -0.49167
C         32.75672        61.48578        -1.11695
C         31.47482        60.74077        -0.83382
C         32.81077        62.97691        -1.10763
C         31.57213        63.70987        -0.77600
C         32.70890        65.90074        -1.41967
C         31.50042        65.11421        -1.24133
C         32.77183        67.28509        -1.17849
C         31.57267        68.03281        -0.77153
C         32.91663        69.98722         0.07139
C         31.64128        69.16754         0.07025
C         33.05769        70.79932         1.33811
C         31.93751        71.08643         2.02138
C         33.20277        73.62759         2.61759
C         31.95978        73.06145         2.99175
C         35.24573        48.54103        -0.08580
C         35.23493        49.95698        -0.27903
C         34.02239        50.72568        -0.09070
C         35.23975        52.88019        -0.28717
C         33.97222        52.12451        -0.16581
C         35.18176        54.31144        -0.59656
C         34.00127        55.03203        -0.41674
C         35.25073        57.17887        -0.69297
C         34.00230        56.46865        -0.52012
C         35.25138        58.63867        -0.73888
C         34.01213        59.34172        -0.74472
C         35.22029        61.45394        -1.16528
C         34.02602        60.74575        -0.96647
C         35.16965        62.85045        -1.68337
C         33.92283        63.64290        -1.53369
C         35.24335        65.89943        -1.98210
C         33.93555        65.13047        -1.77506
C         35.24998        67.34893        -1.55972
C         34.08386        67.95836        -1.07170
C         35.36872        69.76360         0.08061
C         34.16442        69.20302        -0.29014
C         35.54593        70.88519         1.05972
C         34.33910        71.43507         1.76515
C         35.54902        73.59111         2.06633
C         34.34935        72.88318         2.19948
C         37.76143        44.14055        -0.22592
C         37.67198        45.53326        -0.44417
C         36.50453        46.27573        -0.18201
C         37.68672        48.44454        -0.88181
C         36.34399        47.68767        -0.51814
C         37.74331        49.90758        -0.52898
C         36.43041        50.62505        -0.63983
C         37.69279        52.77881        -1.08440
C         36.51608        52.08696        -0.57733
C         37.66351        54.20628        -1.35615
C         36.37967        55.00751        -1.06944
C         37.72567        57.14183        -1.04730
C         36.42367        56.46603        -0.89495
C         37.75450        58.65366        -0.92988
C         36.45640        59.36274        -0.85065
C         37.71196        61.49483        -1.15331
C         36.46774        60.77154        -1.06102
C         37.68655        62.94680        -1.26095
C         36.46002        63.60997        -1.78585
C         37.72422        65.54585        -2.43000
C         36.51292        65.08768        -1.95479
C         37.80192        67.73687        -2.12637
C         36.48772        68.17704        -1.58673
C         37.89298        69.85809        -0.16284
C         36.56484        69.38643        -0.67423
C         37.93755        71.21743         0.41793
C         36.76467        71.73133         0.96463
C         37.94523        73.80664         1.48297
C         36.75918        73.04999         1.52320
C         40.29187        39.89301         0.40401
C         40.22163        41.23515        -0.06581
C         39.04320        41.98729        -0.03968
C         40.20091        44.09117        -0.52374
C         38.99301        43.40617        -0.31358
C         40.23787        45.52200        -0.85464
C         38.89805        46.24406        -0.89456
C         40.16944        48.37412        -0.85174
C         38.96067        47.71067        -0.79966
C         40.19285        49.79766        -1.25053
C         38.89187        50.54278        -1.30867
C         40.21702        52.73881        -1.30533
C         38.91468        52.03691        -1.42546
C         40.16714        54.18736        -1.23910
C         38.96897        54.90914        -1.30702
C         40.10604        56.83695        -0.42276
C         38.94403        56.28676        -0.92720
C         40.14651        58.96766        -0.13814
C         38.96485        59.48208        -0.65137
C         40.24031        61.54865        -1.04400
C         38.96631        60.86483        -0.97600
C         40.28216        62.92593        -1.37358
C         39.01812        63.67178        -1.41522
C         40.23778        65.50934        -2.44407
C         39.00163        64.92340        -2.17344
C         40.27312        67.69309        -2.23979
C         39.02965        68.25360        -1.78038
C         40.40543        70.05715        -0.66073
C         39.14185        69.28385        -0.71747
C         40.39267        71.38880        -0.06123
C         39.16065        71.94593         0.43185
C         40.35203        74.04377         0.93915
C         39.15418        73.27748         0.96237
C         42.67142        35.76492         1.62018
C         42.70388        37.07565         1.11652
C         41.49756        37.82937         0.95892
C         42.77711        39.67548        -0.11266
C         41.48248        39.14102         0.47093
C         42.80144        41.19415        -0.21947
C         41.48353        41.88292        -0.49302
C         42.65967        44.16224        -0.12780
C         41.47915        43.37358        -0.62205
C         42.80920        45.58101        -0.65502
C         41.47828        46.30797        -0.66862
C         42.66860        48.46509        -0.47460
C         41.44807        47.69025        -0.70977
C         42.68793        49.87206        -0.62141
C         41.49066        50.56666        -1.17464
C         42.61214        52.75096        -0.65373
C         41.39769        52.04423        -1.10323
C         42.64887        54.24645        -0.69791
C         41.43433        54.92583        -1.19021
C         42.65804        57.13583        -0.33001
C         41.42407        56.42196        -0.80148
C         42.65325        58.66854        -0.20115
C         41.42900        59.49685        -0.41120
C         42.74764        61.47395        -1.12516
C         41.47019        60.82052        -0.88526
C         42.75222        62.90026        -1.41847
C         41.50018        63.62339        -1.56360
C         42.66854        65.84289        -1.80193
C         41.48595        65.01182        -1.93443
C         42.69435        67.25516        -1.76854
C         41.50367        68.08694        -1.72269
C         42.80868        70.16316        -1.21593
C         41.53690        69.43767        -1.15838
C         42.81296        71.53728        -0.49913
C         41.58308        72.12865         0.06766
C         42.74137        74.37865         0.42537
C         41.58266        73.50062         0.53305
C         45.00185        33.16975         2.97232
C         43.82838        33.77736         2.55855
C         45.12239        35.72909         1.81883
C         43.85658        35.07886         1.98405
C         45.16710        37.01566         1.22075
C         43.98612        37.70893         0.89414
C         45.16963        39.85668         0.78891
C         44.01964        39.10607         0.55274
C         45.17513        41.29660         0.80188
C         43.96626        41.98814         0.28183
C         45.05732        44.24438         0.81534
C         43.81891        43.46627         0.48527
C         45.11841        45.69467         0.48237
C         43.92579        46.37154        -0.00131
C         44.98038        48.54039         0.52472
C         43.84355        47.75954        -0.01484
C         45.04621        50.01762         0.22709
C         43.86378        50.63824        -0.39605
C         45.10103        52.77748        -0.45901
C         43.89561        52.03925        -0.55430
C         45.11728        54.21469        -0.61943
C         43.92698        54.97656        -0.71390
C         45.12492        57.11332        -0.75147
C         43.93317        56.41296        -0.62859
C         45.23509        58.57701        -0.56000
C         43.96603        59.39385        -0.37156
C         45.22070        61.39286        -1.27479
C         43.93820        60.77759        -0.91786
C         45.22582        62.91512        -1.48535
C         43.93675        63.61906        -1.43334
C         45.21689        65.78473        -1.22761
C         43.89805        65.09928        -1.36421
C         45.30578        67.23591        -1.56842
C         44.00668        67.98680        -1.69987
C         45.27845        70.07625        -1.09415
C         44.06690        69.42289        -1.33213
C         45.30588        71.40055        -0.49497
C         44.10935        71.86984         0.03087
C         45.30977        74.40121         0.09368
C         44.06325        73.91836         0.54048
C         46.24235        33.82562         2.84802
C         47.59863        35.78976         2.15296
C         46.32390        35.09993         2.27825
C         47.69195        37.01996         1.58119
C         46.47468        37.66584         1.05599
C         47.62698        39.90934         1.62932
C         46.46715        39.17674         0.96662
C         47.61494        41.37334         1.26246
C         46.34264        42.01335         1.02885
C         47.59675        44.22262         1.03644
C         46.32241        43.49283         1.13150
C         47.55935        45.71296         1.27076
C         46.28576        46.37391         0.76921
C         47.58095        48.60488         0.76573
C         46.27112        47.84350         0.82805
C         47.57318        50.01766         0.31122
C         46.35216        50.69977         0.11058
C         47.57361        52.78641        -0.29632
C         46.34761        52.08171        -0.24870
C         47.58444        54.19449        -0.55235
C         46.36572        54.89519        -0.69263
C         47.67450        57.10189        -0.86944
C         46.34634        56.33606        -1.00061
C         47.73456        58.58548        -0.84073
C         46.50946        59.27981        -0.90169
C         47.73287        61.38548        -1.04780
C         46.50725        60.68329        -1.01555
C         47.72900        62.86952        -0.76469
C         46.48414        63.64299        -1.18635
C         47.71572        65.74959        -0.71100
C         46.47664        65.00044        -1.13765
C         47.73913        67.23331        -1.03188
C         46.54519        67.95639        -1.19109
C         47.73879        70.05493        -0.75335
C         46.54106        69.36678        -1.09023
C         47.74706        71.48186        -0.46927
C         46.51954        72.15284        -0.26430
C         47.74377        74.27307        -0.08577
C         46.50383        73.59474        -0.03169
C         49.00620        37.70418         1.24604
C         50.08558        39.96690         1.34964
C         48.95996        39.22721         1.38022
C         50.05287        41.43810         1.72063
C         48.78321        42.10157         1.23978
C         50.04278        44.20392         0.54303
C         48.77748        43.53161         1.01646
C         50.04526        45.70744         0.73435
C         48.83152        46.42443         0.81224
C         50.06487        48.53144         0.54444
C         48.84385        47.82847         0.68076
C         50.06563        49.96962         0.29453
C         48.81350        50.67641         0.11546
C         50.03923        52.79989        -0.19886
C         48.82691        52.09908        -0.12031
C         50.12628        54.28515         0.04216
C         48.81020        54.92634        -0.36568
C         50.47010        57.36181        -0.57940
C         48.69571        56.28804        -0.25502
C         50.24812        58.59048        -1.13274
C         48.96877        59.28415        -0.95712
C         50.29531        61.38948        -0.82045
C         48.95896        60.69421        -1.02764
C         50.28490        62.85342        -1.13243
C         48.99332        63.55912        -1.23096
C         50.24436        65.75315        -0.92418
C         48.96371        65.04354        -1.19962
C         50.25205        67.22686        -1.25407
C         48.95924        67.93293        -0.90776
C         50.19378        70.01802        -0.32710
C         48.94895        69.32664        -0.72465
C         50.22954        71.48322        -0.38807
C         48.98943        72.18006        -0.37663
C         50.23642        74.28473        -0.16867
C         48.98741        73.60762        -0.22135
C         51.30748        42.21681         1.42037
C         52.53514        44.27179         0.87552
C         51.31993        43.52808         1.01586
C         52.54460        45.66398         0.69158
C         51.27368        46.39911         0.65337
C         52.56305        48.52985         0.67308
C         51.28031        47.80874         0.60214
C         52.55937        50.01761         0.38812
C         51.26488        50.64276         0.09777
C         52.56425        52.74758        -0.63321
C         51.26966        52.03542        -0.36602
C         52.57348        54.23906        -0.72132
C         51.40491        54.94855        -0.55785
C         52.70395        56.98615        -1.65091
C         51.42482        56.35512        -1.03683
C         52.73577        58.47931        -1.89802
C         51.40949        59.28571        -1.75103
C         52.71055        61.38984        -1.61219
C         51.49380        60.71083        -1.45394
C         52.72105        62.82916        -1.45780
C         51.49947        63.52564        -1.21666
C         52.77542        65.76038        -1.13028
C         51.52460        64.99550        -1.00631
C         52.72916        67.18296        -0.89590
C         51.52228        67.87029        -0.78776
C         52.75412        70.04399        -0.47559
C         51.51205        69.26672        -0.34585
C         52.71106        71.43288        -0.43641
C         51.46645        72.15510        -0.35345
C         52.71036        74.28625        -0.13665
C         51.46604        73.60123        -0.25116
C         53.76832        46.36894         0.57127
C         55.01579        48.49962         0.34765
C         53.82914        47.78092         0.49928
C         55.06252        49.92611         0.12610
C         53.82012        50.68756         0.00000
C         55.05860        52.73899        -0.58970
C         53.83008        52.01579        -0.38222
C         55.06876        54.09607        -0.85342
C         53.85398        54.89528        -1.01340
C         55.22705        56.97909        -1.69678
C         53.93213        56.24157        -1.35541
C         55.19478        58.48777        -1.42348
C         53.99041        59.23145        -1.72925
C         55.23855        61.36130        -1.76089
C         53.95317        60.63769        -1.76104
C         55.27927        62.86125        -1.69618
C         53.93762        63.61925        -1.65809
C         55.22587        65.70448        -1.13229
C         53.98280        65.05668        -1.28571
C         55.20205        67.10539        -0.65054
C         53.96637        67.90289        -0.70511
C         55.24564        70.02277        -0.49380
C         53.98894        69.29539        -0.59072
C         55.23705        71.45061        -0.39279
C         53.97509        72.20458        -0.74487
C         55.16178        74.28923        -0.01828
C         53.95215        73.63089        -0.24638
C         56.26515        50.56626        -0.08064
C         57.39179        52.79611         0.22612
C         56.37777        51.98954        -0.54732
C         57.43772        54.16421         0.03054
C         56.38375        54.79570        -0.82208
C         57.52233        57.05306        -0.44986
C         56.45900        56.26860        -1.11757
C         57.51302        58.45788        -0.51364
C         56.36103        59.15088        -1.06414
C         57.59256        61.36777        -0.70004
C         56.48198        60.60168        -1.29934
C         57.59900        62.79593        -0.72780
C         56.46918        63.54399        -1.18854
C         57.68321        65.65988        -0.79802
C         56.46817        64.97402        -1.08516
C         57.71891        67.15736        -1.06962
C         56.49293        67.85032        -0.51630
C         57.69364        70.02690        -0.33303
C         56.46409        69.32871        -0.49322
C         57.65814        71.42357        -0.04383
C         56.41874        72.13787        -0.12412
C         57.58874        74.25879         0.36067
C         56.42017        73.59631         0.05098
C         58.50114        54.96942         0.49869
C         59.65787        57.11454         0.74937
C         58.56850        56.36699         0.25485
C         59.72025        58.51592         0.59242
C         58.62110        59.21102        -0.01608
C         59.80224        61.35340         0.37935
C         58.66274        60.64649        -0.10782
C         59.85666        62.77506         0.28749
C         58.75211        63.50433        -0.24888
C         59.99741        65.60862         0.11975
C         58.82098        64.93465        -0.35642
C         60.14345        67.07228        -0.06053
C         58.98860        67.87254        -0.63443
C         60.11403        69.98527         0.03957
C         58.93104        69.31439        -0.30765
C         60.07038        71.40107         0.26021
C         58.86707        72.10223         0.26495
C         60.12780        74.26695         0.65014
C         58.82458        73.51791         0.79416
C         60.84793        59.23843         1.05657
C         62.06048        61.35027         1.39520
C         60.91375        60.63899         0.95014
C         62.12769        62.75091         1.33368
C         60.99759        63.47123         0.78731
C         62.10021        65.58365         1.48434
C         61.02496        64.88598         0.73962
C         62.15775        67.08504         1.45262
C         61.18232        67.82413         0.64012
C         62.38481        69.91268         1.04350
C         61.28032        69.22415         0.48499
C         62.56906        71.33482         0.79096
C         61.33927        72.13989         0.37763
C         62.61219        74.22597         0.81822
C         61.34447        73.60056         0.63394
C         63.29356        63.44886         1.76700
C         64.48156        65.57543         2.22950
C         63.34416        64.85564         1.82967
C         64.54155        67.01278         2.23499
C         63.41166        67.74342         1.82339
C         64.68943        69.93210         2.18489
C         63.39856        69.20197         1.82400
C         64.83560        71.34808         1.78570
C         63.74240        72.06323         1.28939
C         65.03691        74.12861         1.36941
C         63.79906        73.49107         1.11732
C         65.76722        67.71007         2.51571
C         67.12018        69.79513         2.55173
C         65.89517        69.10576         2.41680
C         67.22599        71.20645         2.38396
C         66.08387        71.98432         1.98440
C         67.44911        74.01739         1.96319
C         66.18514        73.39447         1.75510
C         68.45714        71.88092         2.55703
C         68.55138        73.26381         2.35381
O         44.82792        67.62302        -2.89165
O         35.88624        62.95805        -2.96743
O         34.39465        65.54252        -3.11656
O         36.31662        69.56311        -2.10996
O         44.83566        59.13086         0.77085
O         25.79337        70.29849         0.09752
O         40.01307        57.78166         0.59293
O         31.92964        60.99597        -2.23657
O         40.26266        66.68204        -3.21320
O         27.35213        71.02021         4.23249
O         26.83388        68.11877        -1.56302
O         35.24506        70.52889         2.46832
O         55.92316        67.23394         0.66656
O         29.96011        72.04915         0.82046
O         62.29562        71.70806        -0.62251
O         56.23044        60.90072        -2.72176
O         36.18805        52.61020         0.82302
O         50.01845        43.98056        -0.85887
O         31.09994        63.49620         0.60111
O         41.01993        49.99309        -2.44014
O         45.43711        43.98545         2.21022
O         56.95756        55.26577        -2.09619
O         38.27277        63.68198        -0.13643
O         47.17943        56.64158        -2.17070
O         37.74409        66.77265        -3.12213
O         61.53274        66.35360         2.61163
O         38.63974        51.12893        -2.59821
O         37.84743        57.98331        -2.26234
O         46.89252        48.38302         2.05386
O         36.80938        48.04380        -1.89725
O         46.76631        38.36306        -0.21333
O         41.51875        42.52485        -1.81611
O         49.65740        56.97072         0.50442
O         44.65549        49.50609         1.56428
O         50.86845        65.36306         0.31179
O         39.51675        45.76547        -2.12906
O         51.92313        58.87104        -3.04146
O         54.66968        63.40390        -2.90887
O         42.78132        71.41596        -1.96334
O         51.69890        56.36467        -2.47709
O         48.84318        64.36074        -2.46854
O         51.83118        52.16669        -1.77806
O         63.63728        69.76859         3.18121
O         44.15450        72.64448         1.17848
O         43.82270        41.64385        -1.16064
O         38.62263        68.83160         0.60200
O         60.09519        67.49607        -1.50171
O         50.77072        69.47897         0.91975
O         44.38446        65.57681        -0.01848
O         26.83743        65.45772        -2.14031
O         45.27294        61.98670        -2.62126
O         30.10904        66.78256        -2.22093
O         41.58033        55.96750        -2.18165
O         42.36179        53.56294         0.57720
O         42.71114        43.95335         1.32535
O         36.75949        54.58965        -2.45633
O         32.02395        71.67789         3.27880
O         52.62333        49.49529         1.77688
O         42.60594        57.78574         0.96131
O         50.29757        67.26266        -2.72418
H         50.11220        68.17759        -3.02334
O         43.20429        45.43609        -2.05521
H         42.47234        44.99878        -2.54264
O         47.76269        65.69508         0.74078
H         46.90380        66.01235         1.09087
O         50.27840        54.43106         1.49256
H         50.12849        55.38144         1.70147
O         50.50826        61.30919         0.64588
H         49.83085        61.89265         1.06041
O         49.34948        37.35607        -0.10432
H         48.60171        37.65562        -0.67142
O         32.75161        70.93874        -1.02713
H         32.66653        70.43216        -1.86260
O         54.00258        72.32818        -2.21429
H         54.12476        71.42886        -2.58615
O         56.88138        51.90979        -1.92562
H         57.00386        52.82792        -2.25311
O         57.63357        67.32853        -2.51078
H         58.53066        67.14906        -2.87280
O         42.81492        39.17146        -1.47586
H         43.46569        39.72630        -1.96250
O         58.65408        73.36651         2.26502
H         59.42382        72.86123         2.60406
O         47.56140        45.85228         2.72520
H         47.34248        46.79725         2.92102
O         38.16085        49.97549         0.87592
H         37.70415        50.73724         1.29699
O         49.95867        41.44837         3.18946
H         49.18022        40.89138         3.43195
O         55.30711        56.91437        -3.14184
H         55.85131        56.12245        -3.36469
O         47.40878        39.84468         3.08091
H         46.68494        40.46788         3.30694
O         28.09016        58.74866        -1.07906
H         28.45259        58.91719        -1.97322
O         47.80437        62.93345         0.69742
H         46.98508        62.54689         1.07270
H         23.54349        73.72261         5.34164
H         25.89823        73.99521         4.66130
H         28.38645        74.14445         4.22772
H         30.52624        74.68057         3.07114
H         33.29428        74.72535         2.61026
H         35.57207        74.63968         2.40183
H         37.94449        74.82682         1.89492
H         40.31506        75.08821         1.28251
H         42.55032        75.44339         0.22242
H         45.39606        75.46394        -0.18019
H         47.74801        75.36694         0.03568
H         50.24293        75.37866        -0.04835
H         52.69761        75.36323         0.09427
H         55.14710        75.36149         0.23352
H         57.57115        75.35136         0.49610
H         60.11314        75.35455         0.82161
H         62.65513        75.32444         0.85981
H         65.11574        75.21914         1.24712
H         67.54775        75.10162         1.81034
H         22.18134        68.83451         2.19316
H         21.14604        70.58327         3.58642
H         21.35404        72.60418         5.02424
H         24.42469        65.18669         0.06209
H         23.29345        67.05413         0.88500
H         26.90293        60.98861         0.01708
H         25.63434        63.11220        -0.13894
H         29.41801        56.68711         0.15714
H         28.54685        59.08997         0.89234
H         31.81815        52.36419         0.03234
H         30.62773        54.54370         0.16719
H         34.40098        48.07215         0.44052
H         33.08512        50.17339         0.07760
H         36.84681        43.58932         0.03824
H         35.67653        45.78282         0.35054
H         39.36285        39.42327         0.76475
H         38.10832        41.48774         0.25759
H         41.69943        35.27548         1.78420
H         40.55140        37.37026         1.28664
H         44.96826        32.16599         3.41863
H         42.86352        33.26520         2.68238
H         47.15740        33.33046         3.20314
H         48.50267        35.27646         2.51505
H         49.81872        37.30268         1.90411
H         51.06289        39.47935         1.20821
H         52.25316        41.75614         1.75440
H         53.49670        43.73493         0.92027
H         54.70828        45.79577         0.54474
H         55.96834        47.94905         0.30550
H         57.20064        49.98873        -0.02490
H         58.18006        52.29029         0.80294
H         59.31264        54.49510         1.06978
H         60.47750        56.59390         1.26565
H         61.68714        58.68889         1.50763
H         62.90920        60.78485         1.80783
H         64.16733        62.86351         2.09067
H         65.38632        65.01648         2.51183
H         66.66315        67.11369         2.74344
H         68.02617        69.22679         2.81165
H         69.34840        71.31001         2.85452
H         69.51977        73.76190         2.50349
