         260
 CSIRO Nanostructure Databank - Neutral Graphene Oxide Data Set
C         30.52686        32.06209        -2.87747
C         30.72592        33.26845        -2.56363
C         30.40929        36.02414        -0.58348
C         30.57246        37.02648         0.12029
C         30.39696        40.28060         0.79741
C         30.07406        41.46382         0.71648
C         33.06190        29.50466        -2.70237
C         31.84719        29.83599        -2.88913
C         33.34362        32.21922        -2.49474
C         31.51534        31.14290        -3.29388
C         33.06855        33.56164        -1.88243
C         31.59832        33.99221        -1.71350
C         33.08451        35.79560         0.39078
C         31.24856        34.86114        -0.70491
C         32.90793        37.15203         0.91776
C         31.51457        37.78680         0.93757
C         32.68492        39.99036         1.48572
C         31.39277        39.27518         1.19512
C         32.93206        41.26550         0.76545
C         30.04031        42.89439         0.54150
C         32.45971        43.86996         0.76093
C         31.24049        43.56880         0.72795
C         35.53117        27.74400        -1.70898
C         35.36058        29.10736        -1.73023
C         34.29171        29.92079        -2.17461
C         35.48279        31.99694        -1.32424
C         34.32419        31.36726        -1.98141
C         35.48644        33.33799        -1.07903
C         34.24819        34.16522        -1.13861
C         35.49126        36.00662         0.07763
C         34.23901        35.32612        -0.18140
C         35.46355        37.19574         1.06499
C         34.06490        37.85597         1.19509
C         35.27017        40.10398         1.76973
C         34.00822        39.26612         1.63267
C         35.19177        41.59464         1.63777
C         34.00539        42.17097         1.22512
C         34.98670        44.37789         0.66617
C         33.82196        43.57360         0.88172
C         35.14554        45.75220         0.60331
C         37.70209        27.42219        -0.81138
C         36.49054        26.98401        -1.31171
C         37.82635        28.91287        -0.94681
C         36.53056        29.74179        -0.92052
C         37.91916        31.77206        -0.49661
C         36.78546        31.19334        -1.34542
C         37.64090        33.11688         0.12655
C         36.81439        34.03359        -0.85131
C         37.99788        36.11915         0.02321
C         36.68338        35.43726        -0.26828
C         37.91874        37.60031         0.48876
C         36.54923        38.25111         0.61181
C         37.85487        40.28926         1.74073
C         36.59950        39.44624         1.56983
C         37.75754        41.77718         1.60925
C         36.42678        42.30627         1.17602
C         37.61424        44.37763         0.03011
C         36.31403        43.64680         0.50070
C         37.54455        45.94464         0.06569
C         36.27687        46.32049         0.34151
C         40.20475        24.64844        -0.87226
C         39.15093        25.29213        -0.87555
C         40.20466        27.37835        -0.12006
C         38.86729        26.65060        -0.39646
C         40.29268        28.85081        -0.10550
C         39.11925        29.60986        -0.56113
C         40.31439        31.67895         0.26932
C         39.04042        31.05201        -0.21399
C         40.25485        33.13426         0.62777
C         38.88985        33.78524         0.72167
C         40.10356        35.89644         1.46176
C         38.88994        35.26072         0.90695
C         40.05111        37.21906         1.78912
C         39.10007        38.18986         1.22600
C         40.35908        40.33862         1.70699
C         39.17489        39.62238         1.67511
C         40.33648        41.85586         1.62463
C         39.00612        42.59221         1.42141
C         40.16112        44.51732         0.12313
C         38.90722        43.92804         0.73817
C         40.14255        45.96241        -0.34457
C         38.72225        46.66080        -0.44305
C         40.00211        48.66324        -0.74010
C         38.92123        48.10625        -0.46477
C         42.78558        24.55667        -0.32834
C         41.56314        25.19788        -0.80941
C         42.69770        27.31297         0.35792
C         41.51473        26.65249        -0.28499
C         42.70710        28.67519         0.53001
C         41.48999        29.49111         0.33101
C         42.66149        31.53586         1.35067
C         41.49531        30.86791         0.66466
C         42.67883        33.04899         1.57441
C         41.38317        33.78443         1.34536
C         43.12834        36.18683         2.07580
C         41.16914        35.01397         1.89469
C         43.06812        37.55826         1.86365
C         41.90298        38.38424         2.12052
C         42.81529        40.31802         0.95386
C         41.67966        39.66768         1.66403
C         42.87448        41.81426         0.96928
C         41.58523        42.57586         1.16798
C         42.72845        44.65081         0.02947
C         41.47347        43.84549         0.34929
C         42.65204        46.15511         0.32691
C         41.38251        46.78484        -0.29658
C         42.63514        48.76125        -0.66167
C         41.32969        48.15688        -0.58443
C         43.75313        25.13187         0.17111
C         45.18695        27.12916         0.72517
C         43.87187        26.43809         0.89120
C         45.26110        28.63449         0.72736
C         44.00388        29.49974         0.56603
C         45.26725        31.52590         1.49669
C         43.94977        30.68495         1.55139
C         45.28301        33.01763         1.19799
C         44.01730        33.82579         1.40393
C         45.39548        35.94226         1.26197
C         44.20113        35.33021         1.61243
C         45.54645        37.42182         1.20863
C         44.29117        38.24395         1.42153
C         45.36405        40.30003         0.39734
C         44.10702        39.57357         0.76603
C         45.18307        41.67091        -0.19995
C         44.09128        42.49250         0.43126
C         45.36784        44.62039        -0.01320
C         44.03180        43.92481        -0.02214
C         45.32512        46.14520        -0.14345
C         44.03172        46.88172         0.00941
C         43.73465        48.21872        -0.51080
C         47.56870        27.06871         1.18956
C         46.44957        26.54899         1.22419
C         47.79361        28.51300         0.97732
C         46.51102        29.23252         1.43334
C         47.74687        31.45131         0.63257
C         46.57046        30.77943         1.37103
C         47.84112        32.96319         0.81884
C         46.65995        33.69018         1.45531
C         47.87120        35.88749         0.56416
C         46.66499        35.19394         1.14926
C         47.78736        37.30742         0.09787
C         46.67111        38.03399         0.43545
C         47.66520        40.09237        -0.70513
C         46.63248        39.51364         0.21900
C         47.57386        41.51420        -1.15041
C         46.37587        42.35866        -0.77749
C         47.93720        44.48601        -0.87503
C         46.57499        43.81644        -0.43998
C         47.44376        45.84286        -1.34703
C         46.54066        46.53502        -0.86738
C         50.44433        28.76773         0.89540
C         49.06068        29.24586         0.80897
C         50.24704        31.36498         0.14970
C         49.10829        30.79398         1.01964
C         50.21926        32.87972         0.02153
C         49.01241        33.64241         0.38500
C         50.24920        35.79573        -0.16901
C         49.03534        35.05754         0.19840
C         50.14736        37.21855        -0.62004
C         48.97765        37.92302        -0.49481
C         49.82695        39.87005        -1.98744
C         49.05532        39.45690        -0.65635
C         49.82046        41.39413        -2.23495
C         48.77352        42.19847        -1.70957
C         49.86739        44.05103        -2.54057
C         48.76123        43.62474        -1.80352
C         51.53561        29.32104         0.73462
C         52.65791        31.41422        -0.37664
C         51.75795        30.79335         0.67691
C         52.43668        32.58676        -0.72246
C         51.33862        33.49447        -0.51627
C         52.36771        35.71006        -1.42386
C         51.49517        34.94716        -0.52684
C         52.41290        36.94820        -1.45753
C         51.36866        37.93057        -1.17319
C         52.11064        39.89560        -2.84535
C         51.24481        39.26659        -1.82619
C         51.96665        41.06052        -3.24740
C         50.91046        41.99570        -2.96076
C         50.79115        43.38618        -3.09717
O         39.37707        46.06809        -1.58187
O         33.88879        34.61495        -2.51331
O         32.48382        41.39051        -0.37279
O         49.72569        39.97348         0.42421
O         32.69362        31.87935        -3.70673
O         44.55657        33.48152         0.05389
O         45.44632        27.85807        -0.50126
O         31.03326        38.30254         2.19790
O         40.71614        43.61051        -0.88065
O         43.93812        42.31123         1.85886
O         42.11107        35.54990         2.77697
O         43.12960        39.63526        -0.31994
O         47.65766        35.83990         2.03678
O         38.92849        38.33665        -0.26994
O         36.26002        42.41995        -0.29549
O         40.65065        32.76074        -0.72576
O         38.78421        29.27841        -1.97301
O         51.36980        35.54444         0.77334
O         45.31283        38.16188         2.45805
O         46.13985        31.30605         2.64163
O         43.29562        44.23201        -1.24342
O         32.06232        34.82576         0.43105
O         45.24358        41.96487        -1.62161
O         48.28310        28.84459        -0.33900
O         40.87007        37.72424         2.79553
O         38.46451        34.36871         1.99817
O         46.29587        44.10398         0.97533
O         38.89579        43.85914         2.17352
O         41.18447        42.59050         2.55951
O         46.39451        40.30603         1.42354
O         37.72216        41.16186         2.91711
O         35.83818        36.64078         2.27464
O         41.78967        26.28316        -1.70503
O         35.96712        39.39899         2.86824
O         42.43968        32.14923         2.69713
O         51.75016        39.16977        -0.50381
O         39.33263        26.86026         0.96679
O         44.96926        46.79307         1.10536
O         47.15646        40.38100        -2.02991
O         33.18763        39.68449         2.79136
O         44.08108        30.09654        -0.74151
H         44.41285        29.41035        -1.36521
O         37.46457        34.01931        -2.14035
H         38.08624        34.78786        -2.18505
O         43.86823        30.08288         2.85001
H         43.56694        30.77598         3.48262
O         52.04869        31.31246         1.93479
H         52.89730        30.94894         2.26248
O         36.14398        38.74667        -0.67689
H         36.93426        39.08208        -1.15307
O         50.06586        30.81211        -1.15805
H         50.82779        31.06908        -1.72272
O         38.74910        36.10219        -1.23093
H         39.16404        36.99249        -1.35267
O         37.22122        31.20916        -2.71335
H         37.44239        32.14532        -2.93441
O         43.66733        26.25742         2.28603
H         42.89013        25.68038         2.43352
O         28.89632        43.52811         0.24868
H         28.15682        42.89635         0.15465
O         37.82138        44.01394        -1.33229
H         36.98361        44.10943        -1.82963
O         46.86235        33.60122         2.88454
H         47.55253        34.26260         3.12554
O         49.31190        31.09547         2.39242
H         50.27151        31.04951         2.60970
O         46.38018        28.85750         2.81079
H         45.69137        29.43575         3.22273
O         48.72653        44.66041         0.27583
H         48.14138        44.92727         1.02120
O         36.74104        32.78726         1.20678
H         36.89168        33.43806         1.93485
O         42.45304        46.25772         1.74798
H         43.31971        46.44070         2.17884
O         47.44981        31.27198        -0.76494
H         48.27102        31.00151        -1.24820
O         49.24548        39.19520        -3.09731
H         48.36501        39.60556        -3.27641
O         36.06978        29.78659         0.43820
H         35.89972        28.87329         0.75126
