         421
 CSIRO Nanostructure Databank - Neutral Graphene Oxide Data Set
C          1.43929         1.97244        -1.36976
C          1.37975         3.36658        -1.22306
C          2.64478         1.30021        -1.25585
C          2.53598         4.12167        -0.95594
C          1.30326         6.29723        -1.05020
C          1.27611         7.67581        -1.01471
C          2.50409         5.57357        -0.83054
C          2.44680         8.42899        -0.74621
C          1.23957        10.60615        -0.95062
C          1.24098        11.98493        -0.98564
C          2.43815         9.87092        -0.75294
C          2.44058        12.72793        -0.85542
C          1.24634        14.91682        -1.13412
C          1.26465        16.28996        -1.28263
C          2.44193        14.17241        -0.93477
C          2.48620        17.00734        -1.24854
C          2.53387        18.41874        -1.47003
C          3.83961         2.01813        -0.97753
C          3.78247         3.44331        -0.82453
C          5.07411         1.34574        -0.84382
C          4.97771         4.17040        -0.53107
C          3.68312         6.29183        -0.52003
C          3.65815         7.72990        -0.46379
C          4.93401         5.59132        -0.34595
C          4.83874         8.46422        -0.16524
C          3.65475        10.58550        -0.57628
C          3.66475        12.01839        -0.65917
C          4.85923         9.86622        -0.27275
C          4.90024        12.72672        -0.55333
C          3.67323        14.87461        -0.84111
C          3.69614        16.29288        -1.00662
C          4.91075        14.16522        -0.65281
C          4.93094        17.00368        -0.96506
C          3.73120        19.08978        -1.49097
C          4.96211        18.40039        -1.24788
C          6.25801         2.04785        -0.54275
C          6.20808         3.47994        -0.38147
C          7.49090         1.37349        -0.38492
C          7.39531         4.19669        -0.06012
C          6.11210         6.29208        -0.01346
C          6.02396         7.73564         0.41486
C          7.34597         5.61531         0.11882
C          7.33498         8.47365         0.28960
C          6.09584        10.59426        -0.10486
C          6.11263        12.00128        -0.30636
C          7.31698         9.89607         0.15029
C          7.35331        12.70674        -0.19755
C          6.12039        14.88779        -0.57859
C          6.14889        16.30733        -0.69993
C          7.41635        14.13126        -0.68382
C          7.37827        17.04059        -0.60125
C          6.21055        19.05312        -1.35017
C          7.41394        18.41054        -1.02411
C          8.66922         2.07166        -0.05318
C          8.62461         3.50142         0.11495
C          9.89831         1.39298         0.12188
C          9.80000         4.21239         0.48518
C          8.55456         6.32901         0.45513
C          8.53631         7.78988         0.48265
C          9.74712         5.63606         0.65421
C          9.78567         8.51019         0.58091
C          8.53992        10.61804         0.27004
C          8.52208        12.04118         0.14231
C          9.77596         9.93006         0.47364
C          9.72721        12.80359         0.62607
C          8.59964        14.89979        -0.17120
C          8.55744        16.31416        -0.17697
C          9.77566        14.24068         0.19071
C          9.71867        16.96713         0.29630
C          8.67568        19.10756        -1.32045
C          9.79340        18.95092        -0.56071
C         11.07415         2.08084         0.47062
C         11.02465         3.50689         0.67056
C         12.30729         1.36961         0.57110
C         12.22294         4.22756         0.99113
C         10.94435         6.36966         1.21923
C         11.00760         7.82056         0.80816
C         12.24515         5.62086         1.06884
C         12.24386         8.50738         0.81703
C         11.02145        10.65905         0.52368
C         11.02808        12.06740         0.47461
C         12.26138         9.94077         0.63125
C         12.23973        12.80499         0.51173
C         10.99765        14.95283         0.32343
C         10.97755        16.36798         0.31919
C         12.23928        14.23406         0.47705
C         12.21676        17.23484         0.49791
C         11.19083        19.24466        -0.83948
C         12.24507        18.50712        -0.38423
C         13.50737         2.01249         0.89561
C         13.45025         3.44920         1.24051
C         14.74820         1.35109         0.92944
C         14.75540         4.21218         1.34163
C         13.49086         6.35231         1.14131
C         13.48266         7.80879         1.00869
C         14.69866         5.67009         1.19483
C         14.71224         8.51713         0.96090
C         13.48009        10.65298         0.61728
C         13.48564        12.09066         0.54357
C         14.72978         9.94244         0.74913
C         14.69343        12.81427         0.55490
C         13.45520        14.96715         0.51460
C         13.49415        16.39894         0.39249
C         14.68731        14.23381         0.57594
C         14.73174        17.03299         0.29330
C         13.58791        19.10452        -0.65514
C         14.82934        18.42131        -0.20405
C         15.99229         2.04763         0.99334
C         16.01404         3.49071         1.04438
C         17.21184         1.36419         0.85087
C         17.18420         4.18979         0.79048
C         16.02113         6.36587         1.34096
C         15.96574         7.83802         1.03247
C         17.11443         5.67664         0.52579
C         17.17773         8.51669         0.90781
C         15.95059        10.63055         0.69846
C         15.98817        12.08212         0.30792
C         17.19488         9.94818         0.82074
C         17.20530        12.77641         0.85255
C         15.91285        14.94892         0.71718
C         15.95783        16.33746         0.56242
C         17.12001        14.20908         1.11459
C         17.21701        17.06555         0.65263
C         16.07775        19.15563         0.00769
C         17.22863        18.49371         0.38602
C         18.43972         2.06095         0.71400
C         18.42847         3.50045         0.63361
C         19.66951         1.37199         0.63155
C         19.64322         4.21354         0.46735
C         18.43552         6.38964         0.68753
C         18.43697         7.79134         0.81359
C         19.64586         5.67759         0.51521
C         19.66123         8.51253         0.75939
C         18.42553        10.65500         0.88685
C         18.40706        12.10095         0.98178
C         19.67402         9.94638         0.88556
C         19.65028        12.83328         1.17974
C         18.41668        14.97556         1.27136
C         18.41815        16.41737         0.95295
C         19.66775        14.20362         1.20956
C         19.67815        17.11289         0.96039
C         18.48082        19.19700         0.50576
C         19.65808        18.54603         0.76722
C         20.88663         2.06706         0.49943
C         20.87250         3.50268         0.40238
C         22.13592         1.38104         0.46285
C         22.11786         4.20280         0.31207
C         20.85699         6.39158         0.43947
C         20.88343         7.80600         0.56252
C         22.08378         5.66963        -0.03904
C         22.11538         8.53673         0.45811
C         20.90309        10.63561         0.93256
C         20.93741        12.06495         1.42400
C         22.12521         9.94938         0.65143
C         22.16142        12.82892         0.96807
C         20.93869        14.95939         1.50962
C         20.90297        16.42594         1.10698
C         22.15981        14.21908         1.02529
C         22.14071        17.11953         0.92836
C         20.92091        19.34717         0.97426
C         22.18305        18.54019         0.79590
C         23.34069         2.07893         0.41335
C         23.32028         3.51320         0.35177
C         24.61681         1.39849         0.37221
C         24.61737         4.25032         0.56549
C         23.36399         6.40943         0.22292
C         23.35605         7.82825         0.25949
C         24.57387         5.70546         0.17183
C         24.58433         8.53393         0.17098
C         23.35332        10.67622         0.51208
C         23.35576        12.11332         0.62014
C         24.58694         9.98593         0.22552
C         24.55070        12.83433         0.42142
C         23.35399        14.95601         0.79963
C         23.37088        16.38873         0.80231
C         24.55992        14.24037         0.58248
C         24.59512        17.07537         0.58684
C         23.38779        19.20696         0.60978
C         24.62384        18.51187         0.52325
C         25.81130         2.06353         0.21376
C         25.85327         3.50115         0.12741
C         27.09443         1.26752         0.13548
C         27.02154         4.18334        -0.16997
C         25.77438         6.40099        -0.04061
C         25.78927         7.81333        -0.06638
C         26.96371         5.64304        -0.55780
C         27.04324         8.50597        -0.23834
C         25.76950        10.67997        -0.01845
C         25.77267        12.17216        -0.16593
C         27.03781         9.99392        -0.45488
C         27.07095        12.78224         0.30705
C         25.79539        14.95867         0.55550
C         25.81777        16.34198         0.51115
C         27.03390        14.17448         0.74347
C         27.13946        17.03044         0.24614
C         25.86226        19.19969         0.44652
C         27.09872        18.53361         0.42294
C         28.31175         2.06419        -0.28319
C         28.26989         3.49151        -0.37291
C         29.49160         1.39259        -0.52760
C         29.46489         4.21723        -0.66403
C         28.26753         6.37062        -0.39145
C         28.24757         7.81733        -0.31325
C         29.43404         5.67355        -0.61517
C         29.50904         8.54112        -0.25091
C         28.29925        10.66922         0.05534
C         28.27190        12.07592         0.35111
C         29.50187         9.95932         0.03904
C         29.53426        12.77807         0.57055
C         28.31953        14.90774         1.03029
C         28.28533        16.43798         1.09168
C         29.56992        14.18430         0.74251
C         29.59791        17.08553         0.70741
C         28.32657        19.21105         0.47782
C         29.57792        18.53339         0.53895
C         30.70866         2.08667        -0.82580
C         30.67068         3.52124        -0.93926
C         31.91478         1.36692        -0.86813
C         31.90221         4.23474        -1.30090
C         30.66869         6.44998        -0.86804
C         30.71024         7.86072        -0.42151
C         31.93198         5.73792        -1.20205
C         31.97446         8.52419        -0.27040
C         30.76103        10.62792         0.25979
C         30.76307        12.06226         0.47882
C         31.95677         9.90090         0.12779
C         31.97803        12.79932         0.45656
C         30.78065        14.91550         0.63114
C         30.76804        16.37285         0.65323
C         31.98568        14.20433         0.44127
C         32.07441        17.11261         0.81963
C         30.78823        19.22748         0.36692
C         32.03979        18.56531         0.39918
C         33.19391         1.99515        -0.94911
C         33.23943         3.46572        -1.19538
C         34.38059         1.30195        -0.89354
C         34.40939         4.19473        -0.73245
C         33.23682         6.46748        -1.00533
C         33.20559         7.84331        -0.47997
C         34.52064         5.64465        -0.79646
C         34.46838         8.49836        -0.27957
C         33.24321        10.56274         0.37016
C         33.26108        12.07591         0.50018
C         34.49249         9.88333         0.00573
C         34.51915        12.77506         0.20276
C         33.22291        14.92832        -0.03212
C         33.30126        16.38723         0.33214
C         34.52522        14.18614         0.15371
C         34.47657        17.06659         0.21645
C         33.24450        19.22500         0.17549
C         34.49789        18.52564         0.13122
C         35.67712         2.05155        -1.06170
C         35.58155         3.39688        -0.35137
C         36.91533         1.29040        -0.67737
C         36.85591         4.10986         0.00040
C         35.72133         6.31434        -0.23284
C         35.71065         7.77347        -0.21245
C         36.84253         5.59681         0.11253
C         36.90812         8.47106        -0.02841
C         35.70959        10.60266         0.02826
C         35.72466        12.04097         0.09341
C         36.93864         9.89109        -0.04843
C         36.96338        12.72614        -0.06318
C         35.73689        14.87437         0.06712
C         35.79747        16.34928         0.35077
C         36.96693        14.16918        -0.09712
C         36.96417        17.04086        -0.29131
C         35.68885        19.16888        -0.18130
C         36.91849        18.45532        -0.43920
C         38.09031         1.94208        -0.48572
C         38.14196         3.46140        -0.50920
C         39.35748         1.23403        -0.43015
C         39.36350         3.94916         0.29589
C         38.11256         6.27773         0.49421
C         38.14289         7.81049         0.52793
C         39.40371         5.48931         0.43301
C         39.43425         8.43916         0.04035
C         38.18866        10.59612        -0.06894
C         38.18097        11.99436        -0.12835
C         39.44401         9.84757        -0.12390
C         39.47079        12.78357        -0.09745
C         38.14732        14.88184        -0.41480
C         38.13926        16.30504        -0.56147
C         39.32737        14.07642        -0.90564
C         39.33128        16.99787        -0.98017
C         38.07327        19.12304        -0.87864
C         39.27848        18.41898        -1.13578
C         40.55220         1.89275        -0.43447
C         40.61409         3.32586        -0.27525
C         41.73638         4.07108        -0.50892
C         40.64244         6.22365         0.04064
C         40.63170         7.69036        -0.04270
C         41.72953         5.49927        -0.39024
C         41.83647         8.39798        -0.27958
C         40.66687        10.53584        -0.36767
C         40.68691        11.98434        -0.52117
C         41.85424         9.77406        -0.43212
C         41.79661        12.69377        -0.90489
C         40.62433        14.85460        -0.99057
C         40.56371        16.30138        -1.18568
C         41.78590        14.12786        -1.02826
C         41.69772        17.03821        -1.56231
C         40.45275        19.11705        -1.53282
C         41.63595        18.43015        -1.74102
O         31.13157         6.33103        -2.28387
O         33.34914        11.21408         1.69131
O         27.56717        14.32306         2.14218
O         36.09147         3.42131         1.03516
O         38.79108         5.82113         1.72848
O         17.60591        14.62195         2.45300
O         14.05827         3.73076         2.54986
O         34.16105         6.25165        -2.10972
O          9.61677        18.31091         0.69039
O         32.62516         3.79260        -2.49261
O         39.24290         3.37413         1.61301
H         38.76374         4.02682         2.17587
O         38.29239         3.89297        -1.88042
H         37.59102         3.43836        -2.40873
O          9.52261        12.89243         2.09271
H          9.55084        11.97751         2.44681
O         28.05486        16.82760         2.46234
H         27.72065        16.03032         2.93727
O         16.16140        12.09417        -1.16708
H         15.41120        11.59050        -1.54970
O         39.68325        13.17835         1.28918
H         39.75964        12.36191         1.82623
O         21.03789        14.93736         2.98514
H         20.18667        15.27637         3.33934
O         24.76027         4.29997         2.04052
H         23.92014         4.64686         2.40987
O         32.25416        17.13854         2.28643
H         33.13222        17.53918         2.46689
O         21.05746        11.98306         2.88660
H         21.12133        12.91466         3.21213
O         27.10850        10.16322        -1.92078
H         26.82415        11.09347        -2.11323
O         16.73393         5.82274        -0.87721
H         17.43887         5.41851        -1.42498
O          5.75382         7.69009         1.87009
H          6.51536         7.23635         2.29133
O         33.03506        14.94865        -1.50372
H         33.80082        15.42128        -1.89500
O          7.65520        14.01081        -2.14186
H          6.87104        13.56503        -2.52809
O         26.93010         0.12134        -0.71339
H         26.76457         0.43847        -1.62474
O         36.06979        16.43613         1.80896
H         36.93381        15.99798         1.96829
O         25.70372        12.46825        -1.63646
H         24.81987        12.17305        -1.94631
O         10.71006         6.41025         2.68490
H         10.82558         5.49601         3.02280
O         35.85245         2.37191        -2.49120
H         34.99829         2.72224        -2.82962
O         26.74565         5.61572        -2.02168
H         27.60827         5.42483        -2.44959
O         14.38404        18.45666        -1.67321
O         38.99613        13.67996        -2.27257
H         38.96323        14.49189        -2.82050
O         16.41017         6.22036         2.73915
H         15.65094         6.48755         3.29832
O         38.07064         8.20549         1.93961
H         38.55533         7.51220         2.44714
O         12.19788        17.74450         1.86525
H         11.31115        18.15010         1.99980
O         20.93386        20.51624         0.14771
H         20.94211        20.22896        -0.78802
O         21.96240         5.68830        -1.51743
H         21.16968         5.15859        -1.74834
O         27.48343        16.75509        -1.14233
H         26.80064        17.16601        -1.71258
H          0.51618         1.41366        -1.57835
H          0.40266         3.85791        -1.31946
H          2.68860         0.20795        -1.37231
H          0.37258         5.76206        -1.27958
H          0.32511         8.18547        -1.21724
H          0.28287        10.08092        -1.06822
H          0.28466        12.50391        -1.13082
H          0.27957        14.39884        -1.18509
H          0.32504        16.83668        -1.44824
H          1.59247        18.95756        -1.65171
H          5.10948         0.25290        -0.96517
H          3.75956        20.17024        -1.69389
H          7.52718         0.28106        -0.50870
H          6.23550        20.10356        -1.67603
H          9.93533         0.30355        -0.02500
H          8.71769        19.70451        -2.24386
H         12.31272         0.29209         0.34918
H         11.41340        20.12529        -1.46644
H         14.77057         0.26257         0.76816
H         13.59906        20.21733        -0.73850
H         17.21594         0.26435         0.82489
H         16.11324        20.22614        -0.24197
H         19.67838         0.27424         0.70307
H         18.48984        20.28796         0.36351
H         22.14158         0.28158         0.50208
H         20.90840        19.72067         2.03915
H         24.62055         0.29870         0.40820
H         23.38169        20.30535         0.54743
H         27.30042         0.85808         1.16503
H         25.85241        20.30019         0.48852
H         29.51289         0.29549        -0.45423
H         28.32794        20.31263         0.46584
H         31.87960         0.27328        -0.75742
H         30.76309        20.30898         0.15987
H         34.38479         0.20836        -0.77494
H         33.23907        20.30687        -0.03057
H         36.88818         0.19000        -0.71203
H         35.68950        20.26126        -0.31587
H         39.33248         0.13679        -0.51301
H         38.05567        20.21569        -1.00551
H         41.49238         1.33268        -0.55219
H         42.65093         3.58469        -0.87869
H         42.63729         6.02097        -0.72203
H         42.79310         7.86063        -0.31580
H         42.81934        10.27448        -0.58930
H         42.74145        12.17843        -1.13136
H         42.75402        14.62577        -1.18442
H         42.65482        16.52700        -1.73319
H         40.41094        20.20797        -1.66199
H         42.54138        18.97419        -2.04443
