         276
 CSIRO Nanostructure Databank - Neutral Graphene Oxide Data Set
C        -10.77901         0.76702         1.65389
C         -9.70600         1.54082         1.05040
C         -8.46089         0.77703         0.66238
C         -7.56484         1.51489        -0.31935
C         -6.27278         0.79416        -0.60058
C         -5.05557         1.54890        -1.01255
C         -3.88921         0.77403        -1.57642
C         -2.58766         1.52787        -1.68681
C         -1.27726         0.76454        -1.69137
C         -0.04722         1.48922        -1.21449
C          1.22899         0.73156        -1.11967
C          2.50491         1.49531        -1.52730
C          3.79767         0.72890        -1.19037
C          5.04061         1.46103        -0.74792
C          6.33564         0.72297        -0.95386
C          7.64221         1.49077        -0.91582
C          8.95678         0.70148        -0.78600
C         10.09082         1.47902        -0.15113
C         11.32394         0.71745         0.03949
C         -9.71765         2.90660         1.00041
C         -8.62376         3.69333         0.46149
C         -7.60072         3.00516        -0.36843
C         -6.39413         3.77759        -0.86331
C         -5.14772         3.03669        -1.29793
C         -3.83110         3.78752        -1.61414
C         -2.58142         2.97760        -1.23075
C         -1.27316         3.67695        -1.04337
C          0.01630         2.97964        -1.49677
C          1.29850         3.60572        -0.94247
C          2.47643         2.92531        -1.00890
C          3.78273         3.70146        -1.07299
C          5.05663         2.94331        -0.70398
C          6.36925         3.70222        -0.79342
C          7.61641         2.93093        -0.59794
C          8.77124         3.58187        -0.08978
C          9.99179         2.80413         0.12794
C         -8.54353         5.04256         0.65399
C         -7.41652         5.83709         0.19708
C         -6.29373         5.20107        -0.46443
C         -5.05922         5.89569        -0.52374
C         -3.82205         5.24114        -1.07032
C         -2.50280         5.90230        -0.80537
C         -1.16202         5.20436        -1.02015
C         -0.08184         5.53288         0.07523
C          1.24241         5.03256        -0.48719
C          2.49358         5.71074        -0.05548
C          3.76592         4.93800        -0.20188
C          5.02445         5.72911        -0.08212
C          6.36359         5.18793        -0.52015
C          7.67201         5.92084        -0.10547
C          8.76715         4.93758         0.23502
C         -7.39489         7.19109         0.45600
C         -6.26825         8.04953        -0.04256
C         -4.99864         7.24384        -0.12724
C         -3.73355         7.87081         0.27464
C         -2.46298         7.14130         0.03693
C         -1.16169         7.88922         0.04617
C         -0.00868         7.02779         0.46323
C          1.24750         7.67841         0.95994
C          2.51435         6.80206         1.02939
C          3.76025         7.65302         0.85427
C          4.80562         7.17385         0.14120
C          6.68960         8.03577         0.83353
C          7.52937         6.98512         0.98778
C         -6.11809         9.34860         0.70869
C         -4.93429         9.95292         0.92895
C         -3.66283         9.31934         0.59765
C         -2.47524         9.98350         0.64947
C         -1.15951         9.34355         0.36194
C          0.07954        10.00007         0.97187
C          1.36384         9.17373         0.95222
C          2.55184         9.77845         1.18960
C          3.76134         8.95802         1.61342
C          5.08840         9.69010         1.77143
C          6.34761         9.20230         1.65825
C        -10.86077        -0.58296         1.54881
C         -9.95129        -1.33842         0.65500
C         -8.77450        -0.60570         0.10581
C         -7.59444        -1.40183        -0.40025
C         -6.32347        -0.69932        -0.78174
C         -5.04093        -1.42330        -0.83187
C         -3.89320        -0.74212        -1.46700
C         -2.57589        -1.48591        -1.61677
C         -1.25027        -0.74521        -1.72001
C          0.02812        -1.45506        -1.33936
C          1.19842        -0.76394        -1.19195
C          2.44832        -1.41773        -0.60430
C          3.77340        -0.72922        -0.88314
C          4.97995        -1.27404        -0.08510
C          6.29795        -0.76539        -0.66780
C          7.55798        -1.44958        -0.25412
C          8.79009        -0.62931        -0.03996
C         10.04150        -1.36264         0.34292
C         11.31973        -0.62851         0.18138
C         -9.89403        -2.82311         0.69135
C         -8.74885        -3.51117         0.47987
C         -7.47817        -2.77914         0.18289
C         -6.17778        -3.50035         0.09840
C         -5.06140        -2.94616        -0.81048
C         -3.66664        -3.48235        -0.33847
C         -2.54005        -2.95189        -1.23840
C         -1.25379        -3.71009        -1.28351
C          0.07580        -2.97892        -1.54465
C          1.22562        -3.61302        -0.70561
C          2.57650        -2.91990        -1.00796
C          3.72470        -3.58843        -0.24928
C          4.94691        -2.80599         0.11034
C          6.24306        -3.54414         0.38597
C          7.54329        -2.81213         0.38605
C          8.84344        -3.54972         0.34886
C         10.00056        -2.84712         0.35906
C         -8.76009        -5.03146         0.51941
C         -7.50018        -5.68700        -0.11132
C         -6.24948        -5.00290         0.46884
C         -4.95918        -5.73713         0.12393
C         -3.68913        -5.02660        -0.20826
C         -2.53133        -5.87616        -0.76947
C         -1.27216        -5.05321        -0.57959
C         -0.00710        -5.73079        -0.21491
C          1.23071        -5.16455        -0.89789
C          2.55548        -5.86187        -0.54033
C          3.81440        -5.08719        -0.35276
C          5.00247        -5.75138         0.26642
C          6.30739        -5.03372         0.02621
C          7.50578        -5.70861         0.65227
C          8.85374        -5.07523         0.34663
C         -7.48445        -7.18076         0.18006
C         -6.33515        -7.90039         0.22365
C         -5.04890        -7.22027        -0.07985
C         -3.76746        -7.98024        -0.02667
C         -2.47394        -7.24394        -0.06677
C         -1.31791        -7.86808         0.26751
C         -0.02699        -7.15136         0.24507
C          1.24920        -7.88779         0.41010
C          2.55785        -7.34121        -0.13360
C          3.60488        -7.70654         0.95160
C          4.93050        -6.99173         0.79466
C          6.09341        -7.60117         1.54717
C          7.40347        -6.89997         1.27054
C         -6.26711        -9.36060         0.32899
C         -5.10445       -10.03407         0.46839
C         -3.80877        -9.31454         0.77941
C         -2.51588       -10.01923         0.50638
C         -1.27157        -9.27554         0.90673
C          0.04413       -10.01505         0.67014
C          1.24149        -9.36935         0.57953
C          2.56216        -9.97815         0.73754
C          3.69865        -9.22970         0.92346
C          5.01548        -9.82265         1.08847
C          6.13229        -9.09737         1.32915
O         -0.96988         8.85560        -1.02126
O          1.88794         6.04426        -1.33376
O         -2.16129        -3.71681        -2.42114
O          0.67733        -7.20162         1.56298
O         -0.76907        -4.95178         0.77202
O          6.96476         1.13133        -2.19374
O          4.07860        -0.28674        -2.22237
O         -3.94528        -5.42798         1.16897
O          0.51004         1.17163         0.09021
O         -3.05394         7.01454         1.35647
O          4.50944         4.89964         1.03369
O         -7.30531        -1.19407        -1.80501
O          3.92725        -3.16462         1.12198
O         -2.01642         3.14397         0.09787
O         -9.95367        -0.74853        -0.71881
O         -6.14201         3.44262        -2.28207
O         -1.07256         0.03891        -2.93802
O         -6.47590        -2.71082         1.27938
O         -8.21807         2.16819        -1.42060
O         -3.19291         6.13808        -2.06633
O          6.41611         4.70212        -1.88831
O          5.84020         8.00238        -0.30433
O          0.22434         7.20600         1.90835
O          7.03583        -1.55473        -1.62995
O         -3.46449        -1.34746        -2.76752
O          3.49834        -5.63981        -1.67315
O         -5.25898         1.19731         0.40384
O          6.82358        -3.07653         1.63876
O         -4.47289        -7.84861        -1.29901
O          4.91746         2.16094         0.52273
O          9.17896        -0.67823         1.35317
O         -3.42166         1.28319        -2.84543
O          2.93198        -3.00731        -2.38858
H          2.12785        -2.84177        -2.94004
O         -1.27002        -9.02308         2.34739
H         -0.54829        -8.36387         2.51074
O         -0.33986         4.77996         1.26062
H         -1.11089         5.16154         1.73090
O          9.26618        -5.53311        -0.95189
H          8.51421        -5.37764        -1.56794
O          5.79468        -7.40000         2.97404
H          6.00563        -6.46735         3.19531
O          0.35734        -3.12536        -2.95203
H         -0.51144        -3.21809        -3.41327
O         -0.64641         5.66062        -2.28039
H         -1.42009         5.92865        -2.83184
O          2.53053         6.15831         2.31971
H          1.58998         6.00232         2.57663
O         -6.62617         8.44852        -1.42226
H         -6.74425         7.62517        -1.94310
O         -0.21739        10.29102         2.34761
H         -0.18550         9.44706         2.84699
O         -6.42196        -5.12152         1.88973
H         -5.58558        -4.83977         2.32052
O         -7.71297         0.58082         1.89284
H         -6.74778         0.60178         1.71218
O          3.49183         8.61622         3.01805
H          3.22896         7.66153         3.06330
O         -5.29754        -3.45407        -2.13530
H         -4.76383        -2.91347        -2.76610
O          3.87854         4.12838        -2.44762
H          3.46754         3.43614        -3.01658
O          2.83573        -8.10572        -1.32070
H          3.40524        -7.55307        -1.90340
O          9.40183         0.35765        -2.11608
H          8.59349         0.25952        -2.67406
O         -3.92112        -8.89957         2.15250
H         -3.00863        -8.84796         2.53652
O          8.16223         6.59578        -1.29561
H          7.89617         6.04243        -2.06615
O         -2.67058        -6.13494        -2.16550
H         -3.43564        -6.75122        -2.28545
O          2.30713        -1.20917         0.81744
H          1.47827        -1.65444         1.11804
O          2.48869         1.62188        -2.97128
H          2.85529         0.78796        -3.34775
O          3.11047        -7.28804         2.24145
H          3.84098        -7.44803         2.88734
O          0.07404         3.13539        -2.92602
H          0.07531         4.10494        -3.11681
O         -3.38167        -2.91807         0.95057
H         -3.59789        -3.59741         1.63169
O         -9.93252        -5.52426        -0.14151
H        -10.05060        -5.02128        -0.97374
O         -3.73472         3.88535        -3.04211
H         -4.64710         3.98636        -3.39805
O          1.00383        -5.48392        -2.28172
H          1.83761        -5.29738        -2.77045
O         -7.49776        -5.48270        -1.53419
H         -8.22285        -6.01524        -1.92153
O          4.94444        -0.67725         1.21862
H          4.12014        -0.98773         1.66254
O          0.93282        -3.31908         0.66969
H          1.49633        -3.86322         1.25959
O          6.53564        -5.06010        -1.42062
H          5.67174        -5.10839        -1.88605
H         12.26214        -1.18604         0.28577
H         12.27509         1.27089         0.05441
H         10.85615         3.33612         0.55355
H          9.70802         5.37648         0.60244
H          8.19765         6.92785         1.85838
H          7.17639         9.78460         2.09439
H          4.97600        10.62486         2.34681
H          2.59247        10.87746         1.25749
H          0.25783        10.98213         0.46383
H         -2.46381        11.04209         0.95081
H         -4.90132        10.94987         1.39430
H         -7.05020         9.86491         0.98449
H         -8.26190         7.66893         0.93585
H         -9.32529         5.55713         1.23213
H        -10.58449         3.45576         1.40003
H        -11.53708         1.31475         2.23469
H        -11.66458        -1.13238         2.06083
H        -10.82420        -3.37435         0.90273
H         -8.81971        -5.36610         1.58623
H         -8.45500        -7.68280         0.31804
H         -7.21297        -9.91584         0.23240
H         -5.11154       -11.13349         0.50721
H         -2.45502       -10.60026        -0.42975
H          0.03112       -11.10172         0.84903
H          2.62641       -11.07758         0.76468
H          5.09392       -10.91696         0.98935
H          7.10133        -9.60654         1.43955
H          8.31119        -7.37660         1.67611
H          9.61689        -5.44166         1.08019
H         10.96270        -3.38255         0.35178
