         234
 CSIRO Nanostructure Databank - Neutral Graphene Oxide Data Set
C          2.24180         2.33997        -3.19269
C          1.93244         3.67827        -2.72366
C          3.18165         1.58280        -2.58550
C          2.73855         4.30359        -1.81386
C          1.41094         6.53631        -1.75729
C          1.39485         7.86680        -1.48740
C          2.51271         5.67806        -1.29712
C          2.48002         8.56250        -0.81954
C          1.28394        10.79241        -0.87828
C          1.27503        12.12836        -0.53865
C          2.38161         9.97185        -0.51242
C          2.39299        12.77304         0.06571
C          1.16301        14.96961         0.12202
C          1.15730        16.35197         0.14915
C          2.37807        14.23467         0.19793
C          2.36741        17.07975         0.23663
C          2.39161        18.50932         0.15448
C          3.84876         2.09098        -1.32061
C          3.94191         3.60270        -1.35007
C          5.13540         1.39471        -0.98947
C          5.07718         4.27995        -1.00790
C          3.70855         6.39222        -0.71074
C          3.67192         7.86118        -0.54878
C          5.05845         5.76109        -0.84693
C          4.73857         8.47016         0.18575
C          3.42274        10.57992         0.24983
C          3.50831        12.00235         0.45408
C          4.42009         9.69870         0.74885
C          4.82882        12.70916         0.65950
C          3.57845        14.94062         0.37994
C          3.59289        16.36418         0.38394
C          4.85874        14.21667         0.49761
C          4.82917        17.07560         0.45038
C          3.57933        19.18905         0.16097
C          4.83027        18.49390         0.29796
C          6.29310         2.06325        -0.66372
C          6.35019         3.53860        -0.81811
C          7.47740         1.38807        -0.23790
C          7.57838         4.26219        -0.32299
C          6.24962         6.50337        -0.29947
C          6.04221         7.78121         0.49578
C          7.54983         5.75955        -0.13509
C          7.30330         8.51010         1.05555
C          6.20599        10.73644         1.46435
C          6.10089        12.09825         1.16916
C          7.37707         9.98647         1.27267
C          7.31629        12.81787         1.21235
C          6.06322        14.99388         0.86251
C          6.06312        16.37218         0.70880
C          7.27318        14.31105         1.45166
C          7.32043        17.11090         0.75665
C          6.04786        19.18833         0.24715
C          7.30006        18.52986         0.42352
C          8.60076         2.07390         0.26258
C          8.63020         3.46928         0.34005
C          9.75736         1.27701         0.83803
C          9.79397         4.14904         0.95341
C          8.69021         6.43611         0.53178
C          8.63904         7.86603         0.92961
C          9.83029         5.63948         1.05972
C          9.83647         8.51728         1.08398
C          8.58255        10.71300         1.21277
C          8.53462        12.12221         1.33727
C          9.90557        10.02643         0.97124
C          9.72255        12.91152         1.84885
C          8.58291        15.00043         1.12620
C          8.52906        16.42480         0.89414
C          9.78256        14.32371         1.27542
C          9.80670        17.14325         0.86261
C          8.47919        19.22559         0.16492
C          9.78399        18.64816         0.44812
C         11.07630         2.02306         0.77481
C         11.08522         3.43739         0.88217
C         12.27552         1.33054         0.69226
C         12.29424         4.16697         0.85533
C         11.12000         6.35852         1.02078
C         11.11156         7.78230         1.06198
C         12.31131         5.62038         0.92147
C         12.34433         8.46882         1.13150
C         11.07489        10.64539         1.73462
C         11.06754        12.15938         1.87207
C         12.37191         9.87919         1.62285
C         12.35989        12.91089         1.65468
C         11.06178        14.97303         1.01207
C         11.04975        16.38734         0.65361
C         12.27434        14.29914         1.12944
C         12.18853        17.06894         0.24624
C         10.98255        19.15439        -0.21867
C         12.14104        18.43064        -0.24954
C         13.51859         2.02546         0.66659
C         13.52163         3.45793         0.72563
C         14.74364         1.33000         0.58090
C         14.75627         4.16824         0.62280
C         13.54594         6.32610         0.80727
C         13.56132         7.75171         0.93880
C         14.76362         5.60134         0.63559
C         14.81128         8.43731         0.80304
C         13.68857        10.62800         1.63206
C         13.66802        12.14271         1.54254
C         14.98702         9.87192         1.26504
C         14.86473        12.86626         1.10618
C         13.52291        14.94055         0.67298
C         13.47722        16.35359         0.16793
C         14.83538        14.33840         1.08301
C         14.72023        17.19791         0.15491
C         13.29662        18.93364        -1.09233
C         14.65302        18.44981        -0.63747
C         15.97331         2.01900         0.50477
C         15.97519         3.45928         0.49064
C         17.20386         1.32202         0.43309
C         17.20729         4.16831         0.34439
C         15.98454         6.30262         0.44923
C         15.96379         7.73347         0.46598
C         17.21499         5.59110         0.30181
C         17.20170         8.43985         0.05617
C         15.94569        10.67178         0.37460
C         16.00367        12.15315         0.52886
C         17.21716         9.94806        -0.00454
C         17.33960        12.83582         0.49853
C         16.10522        15.11635         0.88444
C         16.04824        16.58147         0.47266
C         17.39013        14.33534         0.66903
C         17.34750        17.28570         0.06472
C         15.79470        19.08159        -1.01394
C         17.11456        18.52407        -0.79991
C         18.42744         2.00950         0.31811
C         18.43194         3.44196         0.25063
C         19.66953         1.30955         0.24927
C         19.65900         4.14068         0.04475
C         18.46658         6.29607         0.12005
C         18.46984         7.71257         0.07345
C         19.66234         5.55508        -0.08293
C         19.71315         8.47533        -0.02138
C         18.50497        10.67499        -0.04871
C         18.53968        12.09620         0.00523
C         19.69699         9.93986        -0.24292
C         19.73823        12.77735        -0.26666
C         18.59612        15.06808         0.13311
C         18.31436        16.33107        -0.67156
C         19.80407        14.25976        -0.27151
C         19.57736        17.05259        -1.09832
C         18.20268        19.09124        -1.39590
C         19.49605        18.42668        -1.41988
C         20.86354         1.99652         0.11262
C         20.88639         3.40363        -0.00623
C         22.13252         4.12966        -0.10224
C         20.88938         6.21259        -0.67589
C         20.99700         7.69890        -0.37969
C         22.15605         5.46103        -0.34670
C         22.02807         8.46717        -1.06930
C         20.88977        10.60592        -0.62042
C         20.88694        12.04558        -0.71660
C         22.00840         9.83092        -1.08806
C         21.97081        12.75386        -1.28403
C         20.85201        14.91183        -1.08480
C         20.79019        16.35064        -1.29758
C         21.91819        14.13484        -1.52133
C         21.92766        17.07301        -1.73262
C         20.63874        19.11274        -1.87258
C         21.85245        18.43628        -2.00169
O         11.58653         9.94962         2.88163
O          5.15770        13.32607        -0.66154
O         19.70842        15.01334         1.03401
O         17.00619         9.17285        -1.23750
O         11.81480        12.69344         3.00079
O          8.61943         6.37307        -0.94560
O         13.90588        11.39400         2.84021
O         15.54127        14.95922         2.22313
O          9.95289        18.21904         1.83700
O          5.89840         6.59339        -1.71653
O         13.51154        15.24163        -0.79146
O          2.76345         5.71589         0.16639
O          9.53976         4.84274         2.25462
O          7.40952         3.93473        -1.75561
O         15.33651        17.37889         1.47662
O          5.06735        10.08514         1.91620
O          6.40497         7.70195         1.89805
O         17.66082        13.46252         1.79054
O         20.72825         8.06695         0.98612
O         15.49136        11.47322        -0.74641
O         13.08650        18.46270        -2.44381
H         13.05565        17.48273        -2.42343
O         20.73078         6.14180        -2.13593
H         20.66109         5.19467        -2.38089
O          9.37636        13.09475         3.26707
H         10.22847        13.24433         3.74636
O          2.92536         1.75134        -0.22965
H          2.09063         2.24004        -0.39418
O         18.00327        17.69865         1.27365
H         17.30563        17.99089         1.90115
O         10.25575        10.29554        -0.42971
H          9.62194         9.81740        -1.00632
O          9.86218         0.00332         0.20082
H         10.01830         0.14990        -0.75445
O          7.08225        14.45874         2.89889
H          7.86639        14.02394         3.32989
O         15.75236         9.72420         2.49486
H         15.39421        10.38695         3.13769
O         17.62770        15.84870        -1.86106
H         17.56771        16.58893        -2.50203
H          1.68149         1.95159        -4.05566
H          1.06198         4.19530        -3.15132
H          3.38136         0.55407        -2.91880
H          0.59260         6.08694        -2.33806
H          0.53010         8.45611        -1.82297
H          0.43677        10.37801        -1.44046
H          0.41163        12.73348        -0.84509
H          0.20423        14.43975         0.04677
H          0.20606        16.89824         0.07440
H          1.43957        19.05033         0.05405
H          5.09952         0.29830        -0.89875
H          3.59517        20.28451         0.06704
H          7.48259         0.28839        -0.21658
H          6.04395        20.27184         0.05822
H          9.53141         1.07213         1.92170
H          8.42845        20.22478        -0.29279
H         12.26562         0.23214         0.63832
H         10.91273        20.10273        -0.77282
H         14.73962         0.23006         0.56413
H         13.28320        20.05012        -1.13904
H         17.20154         0.22227         0.46199
H         15.72973        20.00689        -1.60823
H         19.66705         0.21240         0.31791
H         18.09827        20.04147        -1.94282
H         21.81419         1.44422         0.08402
H         23.07098         3.57527         0.05033
H         23.11418         5.99695        -0.41484
H         22.80672         7.92202        -1.62203
H         22.84487        10.34875        -1.57589
H         22.86053        12.21340        -1.63019
H         22.74894        14.59657        -2.07247
H         22.89140        16.55962        -1.84892
H         20.56887        20.18224        -2.11546
H         22.74923        18.97712        -2.33406
