         272
 CSIRO Nanostructure Databank - Neutral Graphene Oxide Data Set
C        -11.12318         0.55206        -1.26826
C        -10.25788         1.62324        -0.74463
C         -8.63047         0.71377         0.54543
C         -7.40236         1.39578         0.13480
C         -6.15715         0.76836         0.71285
C         -4.88982         1.46541         0.29374
C         -3.76562         0.61763        -0.17561
C         -2.47225         1.34046        -0.35513
C         -1.22922         0.55051        -0.17148
C          0.04802         1.19663         0.26261
C          1.33303         0.46961        -0.13632
C          2.69278         1.20971        -0.13330
C          3.64056         0.74674        -1.24914
C          4.97084         1.48979        -1.29337
C          6.26044         0.73634        -1.39139
C          7.61075         1.43343        -1.25048
C          8.34614         0.93620         0.00626
C          9.38046         1.80633         0.75542
C         10.51619         0.95327         1.30107
C         -9.82632         2.70812        -1.44750
C         -8.55535         3.54626        -1.21225
C         -7.40978         2.76347        -0.49476
C         -6.19841         3.60536        -0.19053
C         -4.87595         2.89883        -0.14340
C         -3.62328         3.60575        -0.62318
C         -2.36281         2.84566        -0.36905
C         -1.24871         3.48022         0.41993
C          0.02227         2.64979         0.82424
C          1.35148         3.42801         0.63105
C          2.61373         2.73735         0.16109
C          3.89086         3.54594        -0.08621
C          4.93855         2.98652        -1.02048
C          6.19744         3.76714        -1.28170
C          7.43112         2.93970        -1.67537
C          9.21555         4.15822        -0.03493
C          9.85677         2.99911        -0.05891
C         -8.67679         4.98671        -0.70308
C         -7.57343         5.74836        -0.49894
C         -6.24308         5.07684        -0.36002
C         -4.97186         5.82961        -0.62274
C         -3.63205         5.11476        -0.50206
C         -2.41715         5.80002         0.04621
C         -1.28682         4.97112         0.63132
C          0.00930         5.67825         1.00798
C          1.33003         4.92856         0.92848
C          2.65716         5.69441         0.83732
C          3.93903         4.99120         0.32873
C          5.13107         5.83840        -0.10208
C          6.29921         5.24183        -0.86097
C          7.66690         5.99631        -0.88441
C          8.69193         5.36457         0.07925
C         -7.58621         7.15243         0.10540
C         -6.36915         8.06532        -0.27092
C         -5.02972         7.31058        -0.46997
C         -3.81253         7.96351         0.13656
C         -2.58251         7.21431         0.52431
C         -1.33210         7.96571         0.90161
C         -0.05758         7.19493         1.12523
C          1.25208         7.94851         1.15156
C          2.54376         7.19854         0.84316
C          3.43266         8.08211        -0.02621
C          5.52455         7.04576         0.73929
C          6.40209         8.02053         0.01726
C          7.47238         7.48039        -0.61638
C         -6.17906         9.21009         0.71935
C         -5.03716         9.91230         0.81862
C         -3.81307         9.47769         0.02930
C         -2.48052        10.10299         0.40241
C         -1.32915         9.44476         0.67988
C         -0.03510        10.24755         0.88524
C          1.25549         9.44886         1.08812
C          2.55009        10.15551         0.81813
C          3.67639         9.47910         0.45673
C          4.98937        10.09608         0.32484
C          6.17519         9.46125         0.11309
C        -11.14828        -0.79000        -1.00266
C        -10.30591        -1.65337        -0.14601
C         -8.64479        -0.58528         0.88644
C         -7.45343        -1.44596         1.05933
C         -6.12882        -0.70201         1.09443
C         -4.75308        -1.46710         1.02232
C         -3.90804        -0.89842        -0.13655
C         -2.52906        -1.53926        -0.27954
C         -1.34994        -0.78120        -0.85642
C         -0.10434        -1.50113        -1.19761
C          1.22176        -0.86732        -0.84040
C          2.36223        -1.53513        -1.62439
C          3.65166        -0.70586        -1.64809
C          4.90452        -1.46431        -1.11101
C          6.25440        -0.76770        -1.29756
C          7.47349        -1.43201        -0.74827
C          8.45222        -0.56261         0.00699
C          9.79046        -1.22573         0.26612
C         10.64264        -0.37826         1.18676
C         -9.84008        -2.86660        -0.55196
C         -8.58574        -3.62187        -0.09627
C         -7.53413        -2.92046         0.79857
C         -6.23506        -3.70550         0.78756
C         -4.88852        -3.01636         0.84194
C         -3.61241        -3.83472         0.44383
C         -2.47444        -3.01851        -0.20514
C         -1.40410        -3.74390        -0.97564
C         -0.09825        -3.01484        -1.46454
C          1.17595        -3.73520        -1.01620
C          2.47114        -2.98914        -1.12914
C          3.73917        -3.75387        -1.40175
C          5.08508        -2.99453        -1.38086
C          6.08968        -3.58210        -0.34090
C          7.36628        -2.82358        -0.15548
C          8.60883        -3.47371         0.34050
C          9.67929        -2.70091         0.63768
C         -8.77010        -5.03647         0.41251
C         -7.59925        -5.83183         0.52416
C         -6.33747        -5.14195         0.46035
C         -5.14711        -5.87286         0.04451
C         -3.89511        -5.14431        -0.28257
C         -2.65843        -5.98447        -0.49401
C         -1.40679        -5.23209        -0.82691
C         -0.09894        -5.88829        -0.51562
C          1.13046        -5.24835        -1.11715
C          2.41479        -6.00641        -1.08086
C          3.72911        -5.24763        -1.24019
C          5.01880        -5.90900        -0.81669
C          5.95595        -5.05433         0.06640
C          7.27221        -5.74322         0.39130
C          8.55688        -4.95721         0.71522
C         -7.59487        -7.25138         0.67194
C         -6.36996        -8.05808         0.55261
C         -5.08862        -7.36284         0.20457
C         -3.75678        -7.98068         0.63125
C         -2.60832        -7.42912        -0.16488
C         -1.38034        -7.96770         0.52410
C         -0.08581        -7.23752         0.14684
C          1.15338        -8.07073        -0.03030
C          2.40317        -7.42225        -0.54111
C          3.68444        -7.99319         0.01309
C          4.97748        -7.34802        -0.44769
C          5.98076        -7.88726         0.54453
C          7.24740        -7.07647         0.62870
C         -6.22253        -9.43094         1.09351
C         -5.04109       -10.10529         1.04834
C         -3.77002        -9.48972         0.69044
C         -2.57515       -10.16422         0.61617
C         -1.28472        -9.47957         0.51746
C         -0.08077       -10.11399         0.62533
C          1.23605        -9.36201         0.78557
C          2.50163       -10.13502         0.41748
C          3.66695        -9.50116         0.11257
C          4.99482       -10.12159         0.10648
C          6.10646        -9.37841         0.31836
O          5.13492         3.67344        -2.28701
O          7.64859         0.14907         1.01981
O          5.28325         6.04061        -1.52308
O          3.76830        -7.53123         1.44012
O          1.44866        -0.78731         0.58371
O         -6.28773         4.46994         0.99977
O          5.19623        -4.97096         1.30425
O         -0.90050         7.58581         2.24634
O          6.34733        -2.84402         0.89745
O         -5.46624        -3.56269         2.05285
O         -2.74219         3.25304        -1.72723
O          2.98377         6.47931         2.01536
O          0.09611        -6.02884         0.93689
O         -5.76297        -8.06182        -0.86075
O          5.46298        -6.96563        -1.74410
O         -7.12348         1.57726        -1.31812
O          8.16770         3.34053        -2.55685
O          3.37945         0.35200        -2.63393
O         -1.75897        -4.59695        -2.09726
O         -7.77709        -2.42499         2.12683
O          2.29418         2.85273         1.57715
O          1.86082        -3.25808         0.16572
O         -4.54358         2.49588         1.24714
O         -1.80294         4.08176         1.64484
O         -1.78249        -7.60677         1.92249
O         -2.77463        -7.07032        -1.52302
O         -4.83741        -5.27101        -1.35161
O         -6.15797         0.35900         2.09891
O          4.44189         3.94549         1.20940
O          5.61120         1.23481        -2.58710
O         -4.95392         6.71155        -1.78886
O          3.72644        -4.62871        -2.56473
O         -0.91939        -0.81808        -2.23354
O          7.28148        -1.33908        -2.17436
O          0.64055         5.12263         2.19636
O         -3.64024         7.45090         1.50171
O          5.33299         7.12405         1.93689
O         -1.95476        -2.19095         0.89330
O          1.61800        -8.30562        -1.39150
O         -2.61104         5.69925        -1.38536
O          1.62041        -5.87995        -2.30875
O         -3.26612         0.92811        -1.51461
O         -9.82006         1.45500         0.58155
O         -0.76027         0.39087         1.18122
O         -3.29873        -7.52071         1.96533
O         -9.90081        -1.17219         1.11827
O          1.35461         8.74956         2.36783
O          3.60496         7.78869        -1.19794
O          1.95605        -1.66553        -2.99608
H          2.20216        -0.84262        -3.47551
O         -0.06841         2.44579         2.23313
H         -0.02021         3.32532         2.67657
O         -8.00217         3.71971        -2.54290
H         -7.77153         2.82719        -2.88346
O         -3.04579        -4.33328         1.67083
H         -2.69564        -3.56492         2.17717
O          8.68662         2.35741         1.89053
H          8.22279         1.61582         2.33946
O         -7.81657        -3.72439        -1.34791
H         -8.16600        -4.47537        -1.87327
O          5.21179        -7.70243         1.82708
H          5.25156        -5.83095         1.78661
O         -4.05811         9.82255        -1.36523
H         -3.37823         9.38938        -1.92333
O          0.19278        11.07647        -0.25695
H         -0.56391        11.68705        -0.36817
O          3.43145         0.74173         1.01147
H          2.91186         0.95939         1.81782
O          8.48029         0.91230        -2.28720
H          8.04147         1.05997        -3.15407
O         -4.66563        -1.25469        -1.31536
H         -4.30349        -0.74380        -2.07566
O         -4.05383        -1.23763         2.23289
H         -4.58581        -1.60598         2.97042
O         -0.05968        -3.18057        -2.88410
H         -0.67124        -2.53051        -3.29271
O         10.44738        -1.21222        -1.04303
H          9.99823        -0.55214        -1.62000
O          5.70774        -3.16909        -2.65291
H          5.19294        -3.84721        -3.15713
O         -6.70577         8.66540        -1.53579
H         -5.93618         9.21684        -1.81190
O          4.49584        -1.32583         0.26004
H          5.18065        -1.64100         0.89806
O          8.19064         5.98665        -2.21309
H          8.25968         5.06180        -2.55325
O          9.68787        -5.63751         0.16831
H          9.70248        -5.49954        -0.80085
O          1.35919        -9.03475         2.18962
H          2.19687        -8.53299         2.31863
O         -7.63421         6.99304         1.52805
H         -7.12155         6.19452         1.78330
H         11.48519        -0.87947         1.68934
H         11.22592         1.49502         1.94621
H         10.75106         2.88336        -0.69475
H          9.08537         6.01785         0.87942
H          8.20684         8.13828        -1.10747
H          7.06535        10.09358        -0.03812
H          5.00730        11.19471         0.40752
H          2.59651        11.23029         1.05522
H         -0.17823        10.90417         1.79201
H         -2.44383        11.20173         0.30450
H         -4.96255        10.77270         1.50029
H         -7.05940         9.52046         1.30201
H         -8.51450         7.69387        -0.20576
H         -9.67723         5.44210        -0.64843
H        -10.23442         2.83222        -2.46396
H        -11.77711         0.87331        -2.09741
H        -11.81385        -1.37123        -1.66535
H        -10.20935        -3.23071        -1.52578
H         -9.76665        -5.49785         0.45096
H         -8.55004        -7.77064         0.83815
H         -7.12712        -9.94481         1.45181
H         -5.01690       -11.15912         1.36610
H         -2.56512       -11.26129         0.71054
H         -0.05846       -11.21208         0.71129
H          2.50935       -11.22252         0.59324
H          5.06638       -11.21298        -0.01000
H          7.09913        -9.84983         0.35993
H          8.17432        -7.59049         0.92882
H          8.67160        -5.01304         1.83267
H         10.58019        -3.17315         1.06099
