         232
 CSIRO Nanostructure Databank - Neutral Graphene Oxide Data Set
C        -11.05003         0.61777        -0.56289
C         -9.76258         1.29459        -0.94344
C         -8.56348         0.60354        -0.32749
C         -7.24445         1.32595        -0.39488
C         -6.17552         0.72348         0.54882
C         -4.78992         1.33665         0.24587
C         -3.69776         0.79874         1.17735
C         -2.42911         1.56345         1.03379
C         -1.23700         1.12153         1.61297
C          0.03921         1.53350         1.20099
C          1.20917         0.74845         1.31157
C          2.47354         1.49447         1.18445
C          3.75860         0.75893         1.25618
C          4.99865         1.48593         0.89974
C          6.03309         0.85865         0.25275
C          7.15407         1.66586        -0.29441
C          8.33170         0.97441        -0.84287
C          9.62654         1.58204        -0.79189
C         10.87119         0.80482        -0.84553
C         -9.76084         2.79424        -0.84313
C         -8.58984         3.51537        -0.68820
C         -7.37892         2.82337        -0.16256
C         -6.10772         3.59557         0.00766
C         -4.82543         2.85876         0.16969
C         -3.65634         3.55456         0.18008
C         -2.39714         2.85795         0.40353
C         -1.18928         3.53933         0.22937
C          0.11331         2.78113         0.34370
C          1.22673         3.66237         0.90824
C          2.50312         2.85837         0.98330
C          3.74037         3.65763         1.15062
C          5.05392         2.93191         1.21136
C          6.37767         3.68191         1.11515
C          7.28809         3.09897         0.06199
C          8.61860         3.74874        -0.06035
C          9.73334         2.94304        -0.43616
C         -8.52111         4.91232        -0.91047
C         -7.29136         5.63731        -0.91270
C         -6.05190         4.98949        -0.48715
C         -4.84935         5.66845        -0.49893
C         -3.64741         5.06791         0.20122
C         -2.33556         5.66776        -0.25131
C         -1.16819         4.92640        -0.16278
C          0.14414         5.59173        -0.42413
C          1.38408         4.95415         0.12295
C          2.61446         5.75164         0.38689
C          3.76427         5.10166         0.81022
C          5.01820         5.82066         0.87636
C          6.25082         5.17636         0.89474
C          7.47548         5.86976         0.54932
C          8.67026         5.10385         0.22439
C         -7.25496         6.95274        -1.35154
C         -5.95979         7.64195        -1.65250
C         -4.77324         7.02809        -0.94649
C         -3.58604         7.75022        -0.85162
C         -2.32767         7.08091        -0.57178
C         -1.14058         7.79142        -0.66801
C          0.18567         7.07973        -0.78248
C          1.28171         7.82981        -0.03244
C          2.58680         7.17748         0.19232
C          3.71540         7.95548         0.43326
C          4.95964         7.29094         0.83685
C          6.30495         8.06331         0.61068
C          7.47094         7.24402         0.33467
C         -5.99940         9.14122        -1.48881
C         -4.85995         9.84104        -1.32085
C         -3.57471         9.17322        -1.13572
C         -2.39195         9.87619        -1.14293
C         -1.13160         9.22440        -0.88109
C          0.04590         9.94862        -0.77445
C          1.24733         9.34635        -0.16786
C          2.54199        10.02712        -0.18803
C          3.71416         9.37729         0.13608
C          4.99387        10.05616        -0.04519
C          6.18966         9.43663         0.07922
C        -11.06133        -0.70835        -0.32615
C         -9.82429        -1.48222        -0.28180
C         -8.57354        -0.74546        -0.14779
C         -7.26722        -1.51462        -0.12765
C         -6.09847        -0.79220         0.50167
C         -5.02702        -1.44699         1.02037
C         -3.78463        -0.71924         1.47893
C         -2.55989        -1.57884         1.57949
C         -1.27297        -0.98990         1.85006
C         -0.06890        -1.47097         1.34963
C          1.17964        -0.71343         1.28605
C          2.36264        -1.39873         0.86906
C          3.69138        -0.73307         0.93340
C          4.83901        -1.31361         0.22115
C          5.98377        -0.55727        -0.05440
C          7.09398        -1.15540        -0.75348
C          8.12179        -0.35680        -1.25859
C         10.02333        -1.50077        -1.26442
C         11.06555        -0.54702        -0.90250
C         -9.81977        -2.84827        -0.38000
C         -8.63093        -3.63828        -0.13825
C         -7.40074        -2.96206         0.26854
C         -6.32779        -3.64094         0.78157
C         -5.18440        -2.89704         1.47242
C         -3.86899        -3.69127         1.50537
C         -2.59013        -2.95731         1.35040
C         -1.36030        -3.70512         1.25632
C         -0.14881        -2.89047         0.92018
C          1.12433        -3.56992         0.57071
C          2.36692        -2.76424         0.48433
C          3.46291        -3.38936        -0.14402
C          4.65994        -2.60016        -0.48891
C          5.86372        -3.27361        -1.10954
C          7.19219        -2.66009        -0.66866
C          8.43323        -3.40096        -1.31135
C          9.74727        -2.76634        -0.86556
C         -8.68405        -5.00759        -0.21254
C         -7.61549        -5.83141         0.36100
C         -6.41424        -5.10757         0.97696
C         -5.15045        -5.91059         1.17594
C         -3.84107        -5.18757         1.38105
C         -2.54748        -5.88836         1.08521
C         -1.31470        -5.10445         1.19561
C         -0.00456        -5.82839         1.22990
C          1.29344        -5.02434         0.88839
C          2.53935        -5.59612         0.32862
C          3.47551        -4.79868        -0.36018
C          4.53355        -5.47009        -1.17224
C          5.85578        -4.76375        -1.57246
C          7.09433        -5.52086        -0.98371
C          8.27797        -4.81243        -0.80359
C         -7.43135        -7.19092        -0.17484
C         -6.26292        -7.88388        -0.07588
C         -5.12227        -7.34107         0.70639
C         -3.79109        -8.02246         0.59132
C         -2.54941        -7.23710         0.80236
C         -1.30863        -8.08667         0.90989
C         -0.03004        -7.29607         0.98787
C          1.08021        -8.09585         1.03587
C          2.85974        -6.96940         0.53022
C          3.70516        -7.71206        -0.26059
C          4.58273        -6.98595        -1.19944
C          5.89962        -7.65520        -1.58288
C          7.06782        -6.92075        -0.95512
C         -6.07954        -9.11848        -0.83008
C         -4.89460        -9.75875        -0.93086
C         -3.69022        -9.29829        -0.20619
C         -2.35406        -9.77842        -0.61773
C         -1.21771        -9.24619        -0.07785
C          0.07453        -9.85937        -0.28939
C          1.21207        -9.35320         0.31238
C          2.53892        -9.89743         0.03140
C          3.68518        -9.16542        -0.23036
C          4.89393        -9.81867        -0.72849
C          5.90648        -9.13856        -1.30448
O          0.54041         7.18514        -2.19206
H          0.99106         6.34306        -2.43838
O         -1.40581        -8.71999         2.23058
H         -2.28658        -9.17158         2.26302
O          1.05515         4.82982        -1.31374
O         -3.79869        -4.54558         2.70488
O         -9.60531         1.07759        -2.40072
H         -8.67595         1.32657        -2.61950
O          0.92326        -5.35237         2.25722
O          7.05645         3.47748         2.37997
H          6.40012         3.66636         3.08736
O         -4.34222         0.85212        -1.05062
H         -4.98975         1.17976        -1.72268
O         -6.59386         1.02235         1.88884
H         -5.89144         0.70148         2.50509
O          6.06515        -4.79361        -2.93845
O          0.85691         4.02662         2.26114
H          1.67127         4.19266         2.78120
O          0.47981         2.28773        -0.96925
H          0.61094         3.07350        -1.55349
O         -4.04458         0.31032         2.49980
O         -7.02622         3.35849         1.14441
O          5.01294        -2.46011        -1.92909
O          6.63901         2.76630        -1.19564
O          9.06292        -0.91170        -2.11821
O          0.19814        -3.19836        -0.50721
O         -5.72863         7.41142        -3.10092
H         -4.88490         7.85841        -3.32868
O         -3.83486        -9.32813         1.27689
O         -3.77452         5.45274         1.61078
H         -4.61033         5.06675         1.95108
O         -5.63057        -2.76456         2.84373
H         -5.30691        -3.55836         3.33360
O         -6.89629        -1.55493        -1.57681
H         -6.04610        -2.03966        -1.65416
O         -6.82114         1.18362        -1.79394
H         -6.85165         0.20461        -1.98799
O          8.34034        -3.37539        -2.73206
H          7.50238        -3.85657        -3.01355
O         -5.37689        -7.00459         2.10785
O          6.17871        -7.46090        -2.98344
H          6.05664        -6.47567        -3.17946
O          7.33853        -2.97470         0.75197
H          6.71965        -2.41339         1.26864
O          3.93210        -6.24989        -2.26429
O          0.88752         8.64141         1.10018
O          5.69485         7.91559         1.92713
O          2.25683        -7.60770         1.61336
O          3.94073        -0.23592         2.30369
O         -1.29410         0.16282         2.63432
O         -7.49259        -5.60673         1.81267
O          4.38207         3.32074         2.45343
H         12.07966        -0.92999        -0.70693
H         11.76860         1.40980        -0.63134
H         10.73489         3.40004        -0.40536
H          9.61579         5.65333         0.10016
H          8.33208         7.71463        -0.16366
H          7.11621         9.96635        -0.18866
H          4.95758        11.09814        -0.39748
H          2.58159        11.06292        -0.55878
H          0.04774        11.02841        -0.98719
H         -2.39973        10.96352        -1.31153
H         -4.87551        10.94140        -1.29817
H         -6.95941         9.65952        -1.63165
H         -8.18932         7.44790        -1.65782
H         -9.43350         5.43778        -1.23195
H        -10.66806         3.31872        -1.18354
H        -11.98494         1.19653        -0.59093
H        -12.00777        -1.23892        -0.14213
H        -10.76434        -3.38708        -0.54670
H         -9.57710        -5.50516        -0.61963
H         -8.24234        -7.59667        -0.79998
H         -6.95422        -9.49996        -1.37793
H         -4.80286       -10.65518        -1.56174
H         -2.29882       -10.67633        -1.25300
H          0.14151       -10.71530        -0.97738
H          2.58517       -10.98042        -0.17050
H          4.96118       -10.91308        -0.62880
H          6.78669        -9.68891        -1.67041
H          8.03829        -7.44758        -0.95210
H          9.09932        -5.28117        -0.23438
H         10.41098        -3.31072        -0.17883
