         276
 CSIRO Nanostructure Databank - Neutral Graphene Oxide Data Set
C        -11.02128         0.58526         0.39150
C         -9.68472         1.27728         0.64011
C         -8.43359         0.75856        -0.07246
C         -7.19620         1.46530         0.32127
C         -5.95523         0.66671         0.56590
C         -4.67742         1.42120         0.34878
C         -3.46823         0.69101        -0.07702
C         -2.46393         1.35970        -0.71834
C         -1.21234         0.63271        -1.02454
C          0.08091         1.38387        -1.03761
C          1.24636         0.66893        -0.40375
C          2.55218         1.41611        -0.34214
C          3.68160         0.66435         0.33459
C          4.95310         1.43378         0.41845
C          6.16018         0.67593         0.94534
C          7.42575         1.34905         0.38339
C          8.77327         0.70187         0.66329
C          9.90341         1.37579         0.01557
C         11.04180         0.51771        -0.31934
C         -9.70771         2.80486         0.61520
C         -8.58034         3.53357         0.81105
C         -7.25770         2.86236         0.86112
C         -5.97908         3.63181         0.67999
C         -4.86000         2.87317        -0.02237
C         -3.78497         3.57098        -0.80239
C         -2.55666         2.77375        -1.32103
C         -1.20724         3.60674        -1.27755
C          0.17514         2.90963        -1.12043
C          1.06639         3.52606        -0.04177
C          2.34245         2.78964         0.26940
C          3.63113         3.53490         0.48556
C          4.92582         2.79326         0.44774
C          6.15537         3.57889         0.74726
C          7.46354         2.83458         0.74677
C          8.72162         3.55431         0.32536
C          9.84736         2.72963        -0.20600
C         -8.56185         5.00198         1.19815
C         -7.33449         5.79780         0.74669
C         -5.96093         5.15016         0.66224
C         -5.06079         5.79982        -0.38792
C         -3.78385         5.08643        -0.83485
C         -2.51026         5.86595        -1.02446
C         -1.19795         5.11017        -1.13604
C          0.07330         5.81950        -0.70425
C          1.09978         5.02039         0.07809
C          2.42438         5.67725         0.28485
C          3.60306         4.99297         0.30823
C          4.88860         5.58953        -0.23871
C          6.15194         5.05483         0.45291
C          7.45412         5.71320         0.13763
C          8.61164         5.00842         0.03642
C         -7.39931         7.14359         0.68573
C         -6.28247         8.06422         0.22478
C         -5.05439         7.29526        -0.31100
C         -3.68540         7.93175        -0.04754
C         -2.48826         7.36713        -0.80228
C         -1.19327         8.12413        -0.68113
C          0.08807         7.32535        -0.53501
C          1.06919         7.73426         0.54491
C          2.50564         7.18003         0.50349
C          3.50466         7.84772        -0.47770
C          4.86872         7.11505        -0.44350
C          6.14986         7.87958        -0.36915
C          7.46372         7.22989         0.06998
C         -5.88731         9.15051         1.20125
C         -4.77060         9.86422         1.00288
C         -3.76096         9.47414        -0.05987
C         -2.40896        10.10911         0.17197
C         -1.22369         9.53072        -0.15066
C         -0.01076        10.36112        -0.13166
C          1.19196        10.06596        -0.61580
C          2.44279        10.02823        -1.04074
C          3.55054         9.41083        -0.19146
C          4.91441        10.03691        -0.39180
C          6.07355         9.36608        -0.30472
C        -11.26345        -0.74596         0.28909
C        -10.25573        -1.75454        -0.07837
C         -8.29877        -0.69458        -0.33588
C         -7.30083        -1.49005         0.12430
C         -6.02719        -0.84454         0.56633
C         -4.72611        -1.58662         0.45913
C         -3.37145        -0.82342         0.31435
C         -2.54265        -1.47841        -0.82193
C         -1.18578        -0.83290        -0.80613
C         -0.02335        -1.51320        -0.67671
C          1.20432        -0.80950        -0.24506
C          2.41787        -1.65431         0.14026
C          3.70704        -0.83015         0.25786
C          5.03399        -1.34588        -0.32408
C          6.11709        -0.80545         0.58159
C          7.06708        -1.62260         1.07131
C          8.98470        -0.49648         1.26402
C         10.19793        -1.36674         1.12204
C         11.16006        -0.75468         0.12506
C         -9.95737        -3.00593         0.33413
C         -8.72936        -3.72599        -0.25878
C         -7.41779        -2.98440         0.14512
C         -6.14201        -3.76299         0.14626
C         -4.75109        -3.13008         0.27030
C         -3.74514        -3.73523        -0.69497
C         -2.48085        -3.00153        -0.87318
C         -1.21793        -3.76648        -0.68949
C          0.04454        -2.98894        -0.59542
C          1.32064        -3.67905        -1.04457
C          2.57901        -2.97213        -0.57484
C          3.77779        -3.65615        -0.44471
C          5.11729        -2.90389        -0.62315
C          6.27785        -3.65024         0.01963
C          7.30284        -2.98375         0.62681
C          8.65362        -3.56948         0.75851
C          9.84960        -2.84644         0.85364
C         -8.69376        -5.20579         0.23712
C         -7.36826        -5.95182         0.03947
C         -6.17773        -5.15953        -0.47118
C         -4.84871        -5.88947        -0.38552
C         -3.68197        -5.23542        -0.64197
C         -2.41434        -5.91483        -0.89457
C         -1.23433        -5.23187        -0.92588
C          0.09116        -5.99019        -0.90764
C          1.25700        -5.08744        -0.49005
C          2.54852        -5.77056        -0.12359
C          3.82999        -5.07922        -0.36468
C          5.04660        -5.81620        -0.18849
C          6.39772        -5.10582        -0.35726
C          7.54099        -5.77739         0.38693
C          8.70107        -4.99507         0.66733
C         -7.28699        -7.27272         0.30820
C         -5.97892        -8.04884         0.36376
C         -4.90263        -7.36628        -0.44994
C         -3.70367        -8.13123        -0.87211
C         -2.34055        -7.44287        -1.08320
C         -1.28691        -7.98454        -0.08091
C         -0.03596        -7.19904         0.05083
C          1.25620        -7.91530         0.53017
C          2.49196        -7.25330        -0.11186
C          3.79478        -7.97019         0.03994
C          5.01631        -7.16500         0.14815
C          6.18654        -7.86524         0.80671
C          7.49210        -7.12247         0.68506
C         -6.05635        -9.51357        -0.01730
C         -4.99894       -10.21614        -0.45486
C         -3.61611        -9.65037        -0.71832
C         -2.58757       -10.10076         0.37477
C         -1.23859        -9.45128         0.15874
C         -0.04322       -10.10320         0.20229
C          1.25280        -9.42341         0.22916
C          2.45072       -10.07520         0.24848
C          3.73130        -9.36258         0.66000
C          5.05098       -10.04136         0.35551
C          6.19279        -9.33419         0.40687
O          1.66237        -5.16453         0.87623
O          3.10051        -7.86830        -1.26030
O          0.87296         0.10447         0.88495
O          0.45317         4.18083         1.10148
O         -1.06805        -7.10399         1.06844
O         -7.71659         1.54311        -1.06626
O         -4.99336         3.06529        -1.45816
O          5.33369        -3.08311        -2.00180
O         -4.73438        -7.80433        -1.84712
O         -3.26184        -1.19718        -2.01954
O         -5.36234        -1.35738         1.76033
O         -0.57854        -3.48303         0.62057
O         -1.92708         8.05413        -1.95271
O         -6.40356         3.16808         2.00450
O          5.63776         7.41398        -1.67371
O          3.62406        -0.14777         1.55766
O         -5.14643         1.12488         1.68878
O          5.98759         4.57561         1.81493
O         -6.88558        -3.58376         1.38782
O         -3.37337         5.54924        -2.14908
O          0.64558         6.69263        -1.71018
O          8.41292         3.22591         1.74917
O          2.80741         3.01216         1.60755
O          1.38162        -7.84290         1.91312
O         -1.11586         4.47816        -2.44329
O         -5.51987         6.60421        -1.51168
O         -1.91193        -7.76792        -2.37251
O          7.98858        -1.12817         2.01674
O          0.65702         8.20830         1.59305
O         -3.39321        -3.30577        -2.03671
O         -9.36908        -1.22641        -1.06440
O         -2.81268         2.54069        -2.70873
O          7.26057         1.28174        -1.05563
H          8.09086         1.57636        -1.48580
O          3.00665         7.66022        -1.80477
H          3.76607         7.74722        -2.42215
O         -8.84120        -3.78116        -1.68237
H         -8.96321        -2.86338        -2.01593
O         -6.37207        -4.93044        -1.89280
H         -6.26016        -5.78479        -2.36275
O          1.27968        -3.69083        -2.48321
H          2.05874        -4.17369        -2.83063
O          3.04576         1.58488        -1.68728
H          2.39707         2.12137        -2.20915
O         -4.22917        -3.65198         1.51919
H         -4.83584        -3.33361         2.22695
O          6.75028        -5.22835        -1.75252
H          6.28171        -4.46476        -2.20900
O         -0.48913         0.90830        -2.29139
H         -2.09776         1.96477        -3.06183
O          3.03871         7.32590         1.83367
H          2.30125         7.69450         2.38321
O          3.22429         9.72088         1.17168
H          3.91308         9.34282         1.75777
O         -8.58755         5.01585         2.64173
H         -7.85642         4.43498         2.95074
O          4.92641         4.98130        -1.56499
H          5.29234         5.65527        -2.18534
O         -9.02835        -5.25540         1.62840
H         -8.30255        -4.79737         2.11172
O          3.65191        -9.19116         2.10625
H          2.77958        -8.71345         2.29171
O         -3.37813         7.54369         1.32968
H         -4.10334         6.98533         1.70410
O         -9.38973         0.92189         2.03501
H        -10.11672         1.25856         2.60038
O          6.16211         0.82775         2.37083
H          5.28423         0.52786         2.69758
O          5.11553        -0.67938        -1.59184
H          5.34368        -1.38708        -2.25548
O         -5.51345        -7.97162         1.74258
H         -6.12700        -8.49001         2.30351
O         10.89050        -1.44741         2.40421
H         10.20255        -1.49520         3.10290
O         -5.24951         5.51684         1.89953
H         -5.60731         4.94876         2.62068
O         -2.67685        -0.93110         1.55077
H         -3.33164        -0.80273         2.27268
O          2.12640        -2.14353         1.47822
H          1.91728        -1.34980         2.02504
O         -3.05755        -9.73510         1.67700
H         -2.72452        -8.84213         1.90738
O         -6.85114         8.76448        -0.91187
H         -6.74882         8.17732        -1.69390
O         -3.12835       -10.14863        -1.97400
H         -2.66596        -9.39170        -2.43560
O          0.93672         3.14504        -2.33419
H          0.42175         3.79357        -2.88479
O          5.91989        -7.78289         2.24041
H          5.11533        -8.34620         2.43466
O          7.77607         7.72148         1.38706
H          7.51934         7.04462         2.04786
O          0.39853        -6.49288        -2.21134
H         -0.40858        -6.99661        -2.54054
O         -4.21296         9.90185        -1.36021
H         -3.56625         9.56444        -2.01979
H         12.04398        -1.34846        -0.15262
H         11.82866         0.93812        -0.96501
H         10.68979         3.24653        -0.69134
H          9.53871         5.54513        -0.22572
H          8.27699         7.58090        -0.62031
H          7.02891         9.91281        -0.29859
H          4.93705        11.13814        -0.39360
H          2.68079        10.30539        -2.08315
H         -0.14167        11.36655         0.31152
H         -2.41057        11.16569         0.48489
H         -4.52746        10.70793         1.66739
H         -6.59846         9.42870         1.99370
H         -8.37575         7.63473         0.82965
H         -9.48931         5.51649         0.84676
H        -10.68607         3.31242         0.59520
H        -11.89577         1.22765         0.59566
H        -12.30904        -1.08555         0.37964
H        -10.54468        -3.51374         1.11288
H         -9.50176        -5.75437        -0.31023
H         -8.19164        -7.79772         0.65948
H         -7.01852       -10.02839         0.13832
H         -5.12112       -11.28793        -0.67681
H         -2.50012       -11.21551         0.33867
H         -0.03324       -11.19874         0.32482
H          2.48487       -11.16760         0.10783
H          5.06612       -11.11224         0.10159
H          7.15986        -9.82047         0.20798
H          8.37151        -7.60055         1.14851
H          9.63985        -5.51431         0.92350
H         10.75982        -3.47425         0.85272
