         324
 CSIRO Nanostructure Databank - Neutral Graphene Oxide Data Set
C          1.40737         1.90990        -0.92156
C          1.39260         3.31030        -0.96159
C          2.54133         1.23780        -0.49182
C          2.50071         4.05341        -0.52126
C          1.82167         6.08057        -1.83765
C          2.10012         7.32750        -2.28588
C          2.49506         5.54424        -0.64612
C          3.11403         8.13546        -1.66283
C          1.99367        11.23768        -2.03288
C          1.74634        12.46860        -1.43801
C          3.07997        10.46900        -1.60099
C          2.64619        12.97912        -0.48160
C          1.31870        15.10450        -0.18630
C          1.27558        16.48262         0.02508
C          2.51501        14.37752        -0.04155
C          2.45150        17.20676         0.30732
C          2.46889        18.64022         0.41937
C          3.67207         1.95909        -0.03029
C          3.62331         3.38612        -0.00298
C          4.87705         1.26372         0.28024
C          4.71348         4.12613         0.67489
C          3.60447         6.38580        -0.01913
C          3.90547         7.72515        -0.61347
C          4.72524         5.64749         0.67538
C          5.05876         8.51686        -0.13060
C          3.93874        10.86973        -0.55549
C          3.75625        12.19833        -0.07965
C          5.05942        10.00483        -0.10444
C          4.73348        12.83158         0.88670
C          3.68489        15.06590         0.38109
C          3.67409        16.49130         0.47072
C          4.89001        14.33657         0.63911
C          4.88794        17.20271         0.68784
C          3.63500        19.32357         0.63212
C          4.89418        18.63447         0.75302
C          6.06228         1.93305         0.61496
C          5.98730         3.36653         0.99722
C          7.29546         1.26885         0.61999
C          7.28392         4.12062         1.35010
C          6.02569         6.37077         0.82466
C          6.10476         7.82339         0.45245
C          7.31660         5.55585         0.71750
C          7.28312         8.51988         1.02674
C          6.13480        10.66193         0.46632
C          6.06070        12.09170         0.88021
C          7.37734         9.97590         0.80226
C          7.34790        12.84680         0.90354
C          6.08779        15.03406         0.80504
C          6.11058        16.48500         0.79982
C          7.35823        14.33156         0.84128
C          7.31473        17.20460         0.97210
C          6.10722        19.32364         0.90420
C          7.34229        18.63103         1.00080
C          8.53269         1.97906         0.68267
C          8.54623         3.39016         0.89159
C          9.74961         1.29767         0.45572
C          9.74768         4.09327         0.65755
C          8.56761         6.27837         1.23242
C          8.53713         7.77158         1.39450
C          9.85116         5.53901         1.00959
C          9.88116         8.47114         1.70560
C          8.56795        10.64412         0.90004
C          8.55617        12.08251         0.39808
C          9.85504         9.98228         1.29631
C          9.84673        12.82620         0.63837
C          8.54286        15.01877         0.82761
C          8.56518        16.46139         1.13866
C          9.84812        14.32151         0.72604
C          9.88098        17.22618         1.17727
C          8.59292        19.33783         1.02937
C          9.84093        18.69718         1.00562
C         10.94914         2.00272         0.23554
C         10.91390         3.42722         0.24656
C         12.19727         1.31967         0.07722
C         12.02067         4.23908        -0.38277
C         11.11447         6.27809         0.76515
C         11.17096         7.70365         1.20058
C         12.20676         5.62963         0.23004
C         12.42817         8.45800         0.76156
C         11.13676        10.70100         0.92225
C         11.02895        12.01560         0.24359
C         12.42757         9.96314         0.68993
C         11.99081        12.50584        -0.56365
C         11.02822        15.16366         0.36736
C         11.10424        16.52530         0.73827
C         12.07619        14.66557        -0.40796
C         12.28661        17.23305         0.47058
C         11.07536        19.36863         0.82676
C         12.30329        18.67568         0.62739
C         13.38815         2.00695        -0.18437
C         13.32661         3.44654        -0.55430
C         14.63857         1.36030        -0.15578
C         14.62960         4.18744        -0.64926
C         13.44003         6.34629        -0.09084
C         13.46408         7.73252         0.00222
C         14.64370         5.65283        -0.50487
C         14.61401         8.43905        -0.59767
C         13.50864        10.64978        -0.08254
C         13.35199        12.00714        -0.67766
C         14.63638         9.92245        -0.70369
C         14.61087        12.87555        -0.75254
C         13.41463        15.15003        -0.32467
C         13.47718        16.52242         0.09414
C         14.60431        14.36654        -0.53937
C         14.71959        17.19389         0.05298
C         13.53705        19.33713         0.49020
C         14.74626        18.62665         0.24779
C         15.87504         2.05290        -0.29845
C         15.89741         3.45887        -0.46983
C         17.12367         1.36234        -0.23014
C         17.12437         4.15937        -0.56916
C         15.87691         6.31538        -0.63258
C         15.90380         7.75033        -0.65948
C         17.12425         5.58682        -0.71584
C         17.07531         8.49978        -0.75886
C         15.90247        10.69032        -0.66361
C         15.88777        12.11768        -0.52983
C         17.08503         9.93670        -0.65024
C         17.10804        12.83926        -0.43663
C         15.85920        15.01278        -0.37059
C         15.90703        16.44479        -0.17645
C         17.10719        14.27840        -0.39344
C         17.15539        17.12935        -0.18405
C         15.97847        19.28931         0.13785
C         17.17927        18.56878        -0.07635
C         18.33083         2.02612        -0.36996
C         18.35915         3.44244        -0.55223
C         19.60302         1.21191        -0.37036
C         19.59557         4.14850        -0.72885
C         18.35010         6.27338        -0.87418
C         18.33836         7.76073        -1.00012
C         19.57026         5.56081        -0.89898
C         19.62977         8.50284        -0.90476
C         18.33133        10.66015        -0.33767
C         18.35244        12.13259        -0.37091
C         19.64267         9.93062        -0.45063
C         19.58586        12.81232        -0.32828
C         18.35211        14.96374        -0.33125
C         18.37378        16.40384        -0.28951
C         19.59501        14.24695        -0.32819
C         19.61102        17.10095        -0.32433
C         18.40725        19.24769        -0.18976
C         19.62090        18.54325        -0.32907
C         20.88718         2.01692        -0.42196
C         20.84625         3.43396        -0.69051
C         22.06336         1.33195        -0.19531
C         22.07117         4.18232        -0.66433
C         20.86138         6.31265        -1.17509
C         20.85475         7.70863        -0.51116
C         22.08451         5.56815        -0.72065
C         22.13959         8.46401        -0.83111
C         20.87654        10.71053        -0.58555
C         20.85060        12.09124        -0.39605
C         22.13477         9.99966        -0.85619
C         22.10127        12.81588        -0.41012
C         20.84026        14.94987        -0.33182
C         20.84349        16.38590        -0.35154
C         22.08578        14.24721        -0.34987
C         22.07089        17.10178        -0.39096
C         20.84397        19.23400        -0.47000
C         22.06862        18.54020        -0.51341
C         23.37387         1.93384        -0.48129
C         23.34983         3.43575        -0.70877
C         24.66308         1.30431        -0.11138
C         24.63440         4.19190        -0.56869
C         23.26360         6.33427        -0.25476
C         23.37583         7.79941        -0.43705
C         24.54076         5.58903        -0.03841
C         24.57950         8.51370        -0.28687
C         23.40158        10.69788        -0.59864
C         23.33150        12.10770        -0.48470
C         24.61484         9.96185        -0.41163
C         24.58785        12.86271        -0.56286
C         23.32008        14.98054        -0.30080
C         23.30966        16.40998        -0.31604
C         24.56989        14.30666        -0.31044
C         24.54452        17.13016        -0.29434
C         23.29047        19.22246        -0.69266
C         24.53539        18.55932        -0.58740
C         25.87009         1.96017        -0.16562
C         25.91579         3.42307        -0.44767
C         27.12008         1.29140         0.17893
C         27.16383         4.17415        -0.08938
C         25.79025         6.36676         0.25745
C         25.80076         7.84048         0.08870
C         27.08292         5.60834         0.32596
C         26.98387         8.54201         0.33962
C         25.85219        10.64382        -0.17754
C         25.90741        12.09769        -0.41571
C         27.02930         9.97098         0.21592
C         27.08809        12.87026         0.00247
C         25.79128        15.00212        -0.15812
C         25.75954        16.43740        -0.12003
C         27.02361        14.26370         0.02887
C         26.98740        17.21760         0.07282
C         25.73015        19.23304        -0.88507
C         27.00362        18.69335        -0.45345
C         28.32013         1.94066         0.36710
C         28.39164         3.41853         0.25224
C         29.57522         1.28771         0.67129
C         29.52197         4.14195         0.91443
C         28.33046         6.36678         0.36696
C         28.22484         7.79340         0.66012
C         29.53044         5.66279         0.85148
C         29.52908         8.53904         0.77293
C         28.28175        10.70293         0.44474
C         28.29909        12.15631         0.34720
C         29.47716        10.01692         0.66611
C         29.50976        12.87269         0.44108
C         28.27205        15.00213         0.30459
C         28.29937        16.50593         0.20455
C         29.55248        14.28196         0.20362
C         29.54517        17.15227        -0.23486
C         28.28860        19.20036        -0.90217
C         29.50093        18.49184        -0.75046
C         30.74002         1.98082         0.88674
C         30.80487         3.42472         0.96522
C         31.95974         4.16486         1.12537
C         30.83072         6.34653         0.83461
C         30.81242         7.80194         0.36598
C         31.96719         5.59871         1.03015
C         32.03747         8.59563         0.74866
C         30.73122        10.69470         1.01533
C         30.76217        12.22846         0.86282
C         31.98954         9.91219         0.99817
C         32.01229        12.95979         0.63469
C         30.75624        14.98893         0.08941
C         30.75536        16.41575        -0.23451
C         31.99370        14.25731         0.23152
C         31.94278        17.06954        -0.64712
C         30.72129        19.09356        -1.17347
C         31.91685        18.39343        -1.09542
O          5.16086         6.16265         1.97529
O         23.39128         2.52416        -1.83927
O         10.04728        13.45685         1.92802
O          2.28883         6.27957         0.60614
O         28.87913         8.08900         1.98598
O         26.30245         5.88262         1.55428
O         14.28944         9.15899        -1.89021
O         29.21376         4.90298         2.10638
O         19.01412        10.08802         0.87544
O          7.54562         8.10907         2.41062
O         23.63235         5.75765         1.08517
O         30.64743        11.57767         2.17711
O         12.27717         7.94613         2.12567
O         25.40430        12.49407        -1.73432
O         25.46579         3.96841        -1.74111
O         28.30139        15.84811         1.52178
O         19.06856         8.26551        -2.22098
O         13.55555        10.61225         1.38020
O          4.95793         3.58067         2.01433
O         13.90556         3.70297        -1.88053
O         26.91609        18.31365         0.98722
O          9.27733        16.74236         2.41246
O          3.36572         9.32458        -2.35310
O         28.19339         3.94472        -1.11241
O          6.79211        12.31752         2.14274
O         11.73566        13.65574        -1.30803
O         22.13059         9.17982        -2.09112
O          9.27905         5.71016         2.35689
O         10.63580        10.74053         2.28513
O         13.96786        12.29308        -1.95909
O          7.32372         4.21697         2.77325
H          6.40892         4.42581         3.07578
O          9.95857         8.43455         3.12789
H         10.70189         9.01611         3.40222
O         21.00806         6.46959        -2.60478
H         20.30049         7.08944        -2.91169
O          8.44501        12.02009        -1.05830
H          7.64821        11.49386        -1.28484
O         11.50807         4.51896        -1.72455
H         12.28558         4.43979        -2.33298
O          4.16921        12.70702         2.21635
H          4.92572        12.73466         2.84609
O          7.46772         5.40900        -0.72385
H          8.27010         4.87275        -0.91267
O         20.78491         7.49965         0.91474
H         20.45674         8.31773         1.34768
O         19.61623         0.31458         0.75092
H         19.55380         0.84688         1.57029
O         30.75584         7.75214        -1.09356
H         31.56301         7.30105        -1.41882
H          0.52417         1.34756        -1.25403
H          0.48969         3.82685        -1.31386
H          2.57380         0.13916        -0.49859
H          1.14075         5.43266        -2.40671
H          1.61030         7.72613        -3.18442
H          1.35803        10.86583        -2.84658
H          0.89221        13.07116        -1.77421
H          0.39251        14.58342        -0.46699
H          0.32227        17.02026        -0.08129
H          1.51980        19.18666         0.31611
H          4.90895         0.17577         0.11835
H          3.62787        20.42125         0.70189
H          7.31937         0.18936         0.40866
H          6.10419        20.42368         0.92993
H          9.74689         0.20021         0.38898
H          8.56199        20.43663         0.96518
H         12.22816         0.23251         0.24184
H         11.08420        20.46946         0.81267
H         14.66463         0.27893         0.04614
H         13.57979        20.43201         0.59157
H         17.12430         0.27222        -0.08415
H         16.02121        20.38413         0.23502
H         19.58724         0.55754        -1.28601
H         18.42295        20.34685        -0.15220
H         22.01086         0.28079         0.12706
H         20.84039        20.33247        -0.52628
H         24.64386         0.24611         0.19379
H         23.27658        20.30766        -0.87119
H         27.08599         0.19593         0.28852
H         25.69666        20.21529        -1.37817
H         29.59435         0.18778         0.68878
H         28.30002        20.14048        -1.47343
H         31.67200         1.41936         1.05212
H         32.92735         3.65026         1.21766
H         32.95206         6.08895         1.03992
H         33.01018         8.08104         0.76828
H         32.91185        10.44285         1.27673
H         32.96925        12.46271         0.84413
H         32.95016        14.77959         0.09751
H         32.90113        16.53488        -0.64689
H         30.70476        20.12519        -1.55200
H         32.85299        18.87340        -1.41306
