         404
 CSIRO Nanostructure Databank - Neutral Graphene Oxide Data Set
C          1.18174         3.35960        -0.93953
C          0.02864         4.07355        -1.13091
C          1.07881         6.22403        -0.61352
C         -0.02276         5.50248        -1.00193
C          1.07716         7.68041        -0.40554
C         -0.12711         8.41129        -0.26634
C          1.08626        10.52581        -0.06265
C         -0.11790         9.79692        -0.13489
C          1.11812        11.99554        -0.08404
C         -0.03946        12.74142        -0.41216
C          1.18863        14.84202        -0.19642
C         -0.00271        14.12249        -0.45492
C          1.20786        16.29044        -0.17328
C          0.01910        17.03416        -0.36369
C          1.20462        19.13009        -0.02745
C          0.01314        18.41168        -0.27255
C          1.19399        20.57260         0.09346
C         -0.02015        21.29217         0.19546
C          1.16810        23.41185         0.28816
C         -0.03430        22.66793         0.32814
C          1.16629        24.87516         0.33278
C         -0.03139        25.62225         0.42522
C          1.11423        27.78455         0.35356
C         -0.05149        27.02465         0.46897
C          1.13935        29.23629         0.34924
C         -0.05753        29.97673         0.20146
C          1.18313        32.08267         0.14038
C         -0.02849        31.35664         0.11008
C          1.19372        33.50704        -0.16794
C          0.02369        34.14939        -0.63934
C          1.25520        36.19290        -1.05711
C          0.04992        35.46256        -1.07364
C          1.30669        37.51460        -1.64047
C          3.63725         3.37968        -0.62389
C          2.41529         4.02533        -0.61187
C          3.62225         6.23512        -0.30911
C          2.32864         5.47651        -0.33647
C          3.58949         7.71065        -0.67315
C          2.29066         8.39390        -0.31007
C          3.55870        10.50668         0.09154
C          2.31020         9.79597        -0.07978
C          3.51222        11.92391         0.60984
C          2.31754        12.69765         0.14182
C          3.61937        14.83339         0.31490
C          2.38095        14.11731         0.08404
C          3.64630        16.25669         0.29446
C          2.42287        16.98635         0.07145
C          3.65771        19.12883         0.29439
C          2.42731        18.41433         0.10283
C          3.67351        20.55450         0.24201
C          2.42202        21.28612         0.13043
C          3.64266        23.45507        -0.00291
C          2.38625        22.70671         0.15602
C          3.64797        24.90542         0.25462
C          2.39395        25.57791         0.30065
C          3.66519        27.78771         0.42035
C          2.37469        27.04673         0.21081
C          3.60148        29.23582         0.78417
C          2.35324        29.96289         0.50079
C          3.66293        32.09550         0.46196
C          2.40111        31.37625         0.38425
C          3.62341        33.57653         0.43254
C          2.39803        34.25255        -0.07346
C          3.65983        36.40168        -0.49190
C          2.42065        35.59374        -0.51215
C          3.72807        37.59970        -1.36055
C          2.48843        38.16617        -1.82863
C          6.13507         3.42144        -0.66105
C          4.90013         4.08021        -0.55105
C          6.09839         6.22438        -0.57398
C          4.89874         5.50860        -0.48814
C          6.03759         7.70376        -0.59774
C          4.80165         8.34326         0.00316
C          6.00827        10.56111         0.11745
C          4.78498         9.85479        -0.01204
C          6.00228        11.94632         0.44405
C          4.81369        12.67141         0.50623
C          6.05063        14.81111         0.75541
C          4.83936        14.11396         0.55655
C          6.08519        16.23961         0.75743
C          4.86364        16.96782         0.52599
C          6.05959        19.12783         0.83554
C          4.86924        18.40825         0.53350
C          6.09992        20.54393         0.72556
C          4.90499        21.23737         0.39196
C          6.15066        23.44817         0.53455
C          4.95773        22.68757         0.14306
C          6.08758        24.84745         0.61170
C          4.86883        25.57051         0.46053
C          6.14430        27.75929         0.66839
C          4.85617        27.01194         0.93876
C          6.12630        29.22948         0.30271
C          4.90496        29.98361         0.78886
C          6.17716        32.12603         0.55394
C          4.89528        31.45218         0.59305
C          6.22480        33.54602         0.33622
C          4.95355        34.31398         0.39024
C          6.21463        36.28403        -0.63595
C          4.96618        35.74071        -0.08095
C          6.19520        37.52940        -1.33045
C          4.94397        38.16248        -1.66439
C          8.60727         3.45635        -0.80071
C          7.36685         4.13310        -0.72030
C          8.58376         6.31729        -0.74587
C          7.35202         5.57274        -0.70152
C          8.58317         7.74963        -0.65648
C          7.29909         8.47851        -0.68143
C          8.57166        10.63147        -0.16504
C          7.26693         9.93520        -0.35004
C          8.56049        11.90608         0.60393
C          7.26890        12.59127         0.86754
C          8.57799        14.75950         0.99152
C          7.26052        14.05744         1.27710
C          8.54505        16.20993         1.27783
C          7.27837        16.93163         1.10963
C          8.62573        19.18224         1.23755
C          7.25189        18.38279         1.26186
C          8.59020        20.60468         0.88673
C          7.35701        21.27997         0.79777
C          8.60542        23.40286         0.77347
C          7.37261        22.71422         0.72594
C          8.61461        24.85613         0.98764
C          7.30213        25.60662         0.98481
C          8.59544        27.77209         0.79511
C          7.32520        27.07570         0.75800
C          8.57979        29.18412         0.83789
C          7.39660        29.95889         0.67701
C          8.71126        32.08783         0.65456
C          7.39323        31.37085         0.68546
C          8.73233        33.55502         0.28365
C          7.42208        34.23837         0.10476
C          8.65045        36.21812        -0.80389
C          7.42556        35.58722        -0.42408
C          8.63968        37.48195        -1.47749
C          7.40141        38.09621        -1.77028
C         11.07751         3.48430        -0.90024
C          9.83438         4.15958        -0.82673
C         11.05965         6.30000        -0.80778
C          9.82363         5.60328        -0.78331
C         11.03716         7.76980        -0.82325
C          9.78110         8.47628        -0.53650
C         11.03646        10.53499         0.12185
C          9.83729         9.86281        -0.21137
C         11.00368        11.93640         0.52073
C          9.83092        12.64924         0.65164
C         11.05328        14.79126         0.77345
C          9.79754        14.08750         0.85018
C         11.02575        16.27084         0.50725
C          9.86761        16.98183         1.17519
C         11.06211        19.11951         0.76175
C          9.86842        18.44762         1.00813
C         11.07047        20.56506         0.67638
C          9.83488        21.28709         0.72938
C         11.08762        23.43088         0.65792
C          9.84354        22.71489         0.68928
C         11.08028        24.89154         0.61954
C          9.85867        25.59980         0.74469
C         11.07590        27.70462         0.74241
C          9.83556        27.02042         0.78474
C         11.12968        29.08776         1.18207
C          9.79957        29.88173         1.24778
C         11.08762        31.88063         1.61437
C          9.88305        31.34214         1.21521
C         11.10996        34.15491         1.05684
C          9.92501        34.46488         0.39305
C         11.10065        36.40094        -0.60546
C          9.90221        35.66849        -0.38019
C         11.09527        37.61884        -1.39182
C          9.86162        38.12404        -1.82158
C         13.55177         3.49926        -0.94712
C         12.30933         4.17890        -0.89231
C         13.54234         6.33439        -0.70991
C         12.29622         5.62108        -0.82202
C         13.56790         7.73443        -0.49742
C         12.33630         8.52114        -0.60713
C         13.52435        10.49302         0.25745
C         12.30128         9.87309        -0.02131
C         13.55718        11.86682         0.79219
C         12.25462        12.62603         0.89890
C         13.52922        14.77209         0.80164
C         12.27545        14.10424         0.80943
C         13.58428        16.23639         0.43028
C         12.32448        16.98844         0.75206
C         13.57755        19.09026         0.70369
C         12.33115        18.37755         0.75003
C         13.55495        20.52375         0.41744
C         12.28693        21.27735         0.54413
C         13.57950        23.41804         0.74864
C         12.29528        22.69668         0.61447
C         13.56671        24.92925         0.62222
C         12.28420        25.61818         0.43539
C         13.52548        27.79428         0.40133
C         12.29943        27.04228         0.46904
C         13.56785        29.18786         0.67799
C         12.36924        29.83689         1.07174
C         13.58876        31.89642         1.41662
C         12.36337        31.18960         1.47200
C         13.61306        34.22261         1.15127
C         12.33864        34.82791         0.80720
C         13.55873        36.68064        -0.26563
C         12.31455        35.94155        -0.05300
C         13.56226        37.81643        -1.21034
C         12.32333        38.27421        -1.69807
C         16.03186         3.52075        -0.99334
C         14.78384         4.19301        -0.90319
C         16.00924         6.33299        -0.67708
C         14.77998         5.62280        -0.74914
C         16.01657         7.74806        -0.47090
C         14.77906         8.43834        -0.31629
C         15.98662        10.57669        -0.05230
C         14.76395         9.84380        -0.02870
C         16.00807        11.99325         0.30046
C         14.80036        12.63997         0.71274
C         15.99435        14.74258         1.21721
C         14.74191        14.04158         0.89336
C         15.98059        16.23498         1.36813
C         14.80487        16.97696         0.90575
C         16.08630        19.09069         1.03441
C         14.81772        18.37772         0.85413
C         16.04816        20.57851         1.08163
C         14.88389        21.29559         0.49623
C         16.08925        23.49499         0.64136
C         14.86962        22.75546         0.61259
C         16.10282        24.92675         0.31195
C         14.80663        25.58467         0.13531
C         16.04820        27.82748         0.08153
C         14.76587        27.12022         0.01497
C         16.01951        29.25209         0.31434
C         14.79499        29.93967         0.58730
C         15.97978        32.15156         0.62865
C         14.79590        31.35953         0.86551
C         16.06823        33.71404         0.75130
C         14.79886        34.55512         0.55398
C         16.08137        36.47609        -0.59109
C         14.86533        35.93983         0.02914
C         16.04263        37.76668        -1.22284
C         14.79558        38.39312        -1.54227
C         18.51145         3.54759        -1.10595
C         17.24770         4.22198        -0.97256
C         18.47460         6.38108        -0.84465
C         17.24870         5.64741        -0.82287
C         18.47786         7.80735        -0.73672
C         17.22784         8.48494        -0.50951
C         18.38440        10.66153        -0.73794
C         17.18220         9.90092        -0.38399
C         18.36626        12.19127        -0.47330
C         17.20286        12.72249         0.23194
C         18.53222        14.83757         0.71468
C         17.32734        14.01837         0.90037
C         18.64007        16.15238         1.48821
C         17.30229        16.97185         1.53885
C         18.53035        19.19361         1.54660
C         17.27585        18.44081         1.29247
C         18.59852        20.64946         1.29028
C         17.32619        21.40635         1.28014
C         18.55839        23.55713         0.69390
C         17.30482        22.82550         0.87747
C         18.50946        24.84316        -0.04948
C         17.27204        25.63545        -0.01616
C         18.45331        27.91522        -0.23978
C         17.24462        27.10769        -0.13395
C         18.46044        29.30200         0.12929
C         17.22687        29.99865         0.34520
C         18.45505        32.12930         0.28125
C         17.19579        31.44116         0.42405
C         18.45995        33.51719        -0.19777
C         17.16859        34.28333        -0.16286
C         18.48241        36.30032        -0.96303
C         17.25685        35.73590        -0.50288
C         18.47930        37.63760        -1.48176
C         17.25956        38.33224        -1.64029
C         19.68757         4.24741        -1.11922
C         20.91059         6.41365        -1.05116
C         19.70580         5.67845        -1.00424
C         20.90672         7.80001        -0.97481
C         19.70373         8.53082        -0.83014
C         20.82289        10.78365        -0.89309
C         19.68855         9.98996        -0.82018
C         20.80190        12.19502        -0.69267
C         19.65061        12.89407        -0.38270
C         20.75113        15.13099        -0.25188
C         19.64160        14.29655         0.04497
C         20.75081        16.47576         0.13980
C         19.77933        16.99981         0.97902
C         21.07662        19.17244         1.13743
C         19.86479        18.39398         1.42941
C         21.03617        20.51706         0.98737
C         19.79764        21.26347         1.00494
C         20.89767        23.15219        -0.26153
C         19.85913        22.71609         0.67234
C         20.78280        24.32826        -0.93453
C         19.62538        25.15966        -0.79634
C         20.87343        28.09764        -0.70868
C         19.65130        27.43397        -0.81347
C         20.90647        29.36178        -0.13065
C         19.70159        30.00935         0.19641
C         20.89187        32.21201         0.31803
C         19.68336        31.45275         0.33122
C         20.90352        33.56555         0.00786
C         19.72774        34.23589        -0.36635
C         20.91498        36.23336        -1.24920
C         19.72443        35.59031        -0.85718
C         20.90124        37.54303        -1.74963
C         19.70920        38.23774        -1.87432
O         13.59931        33.13538         2.03810
O         10.40686        29.31262         2.44176
O         18.10751        11.63538        -1.80008
O          8.99125        32.51447        -0.75613
O         14.38164        20.82318        -0.79406
O         14.29540        36.92162         0.97444
O          4.29328        29.55560         2.03550
O          4.42311        23.06009        -1.17916
O         16.75177        14.07175         2.25334
O          7.91591        25.22080         2.25407
O         11.13452        33.19553         2.06304
O          6.46522         8.23008        -1.89924
O          7.90626        18.88297         2.46674
O         19.25016        18.70317         2.70903
O         19.62654        26.28836        -1.61881
O         13.64497        24.32588         1.94442
O         12.87044        12.03579         2.09299
O          9.40188        16.52728         2.45308
O         19.52330        23.57236         1.80455
O         11.74296         8.39958        -1.95326
O         14.62762        26.23149        -1.15581
O          7.88072        10.73492        -1.45219
O          7.91917        11.77041         1.92931
O         16.48410        16.63905         2.69585
O         16.41466        21.09437         2.39329
O          2.94995         5.90855         0.95066
O          4.22312        34.15941         1.64484
O          3.25274        27.52618        -0.92839
O          4.25902        36.64014         0.82792
O         17.48222        33.54297        -1.36938
O         18.94095        15.79013         2.85808
H         18.07829        15.57880         3.28978
O          4.80672         7.99066         1.41303
H          3.99105         7.48622         1.63265
O          3.70435         7.81845        -2.11299
H          4.60482         8.13489        -2.35568
O         13.64921        16.20782        -1.08129
H         13.77548        17.13863        -1.37125
O          3.30183        11.75718         2.07466
H          4.07687        11.26668         2.42530
O         16.53362        33.96975         2.10288
H         15.78349        33.79817         2.71276
O          4.68173        26.92903         2.38476
H          5.53579        26.65540         2.78278
O         10.76640        16.39167        -0.93967
H         11.61397        16.14997        -1.38697
O          6.02441        29.29997        -1.16109
H          6.83011        28.89169        -1.54183
O          7.11843        14.10321         2.72560
H          7.62427        13.33543         3.08141
H          1.18846         2.26849        -1.07671
H         -0.89427         3.54716        -1.41259
H         -0.97431         6.00832        -1.21837
H         -1.09137         7.88447        -0.29046
H         -1.08153        10.32175        -0.07677
H         -0.98600        12.22853        -0.62918
H         -0.92993        14.65751        -0.69712
H         -0.92956        16.52181        -0.56689
H         -0.93637        18.94411        -0.41250
H         -0.97816        20.75648         0.20553
H         -1.00020        23.17796         0.43717
H         -0.99504        25.09949         0.48485
H         -1.02358        27.52181         0.59192
H         -1.02206        29.45757         0.12563
H         -0.98338        31.88228        -0.01514
H         -0.92397        33.60049        -0.70324
H         -0.86193        35.93144        -1.46967
H          0.36679        37.95425        -2.00442
H          3.66220         2.29462        -0.80867
H          2.51760        39.13396        -2.35022
H          6.15798         2.32224        -0.70776
H          4.97771        39.08643        -2.26137
H          8.61884         2.35648        -0.82778
H          7.38602        39.05575        -2.30749
H         11.08409         2.38514        -0.95269
H          9.82620        39.06888        -2.38377
H         13.55735         2.40173        -1.02706
H         12.29925        39.16130        -2.34852
H         16.04292         2.42612        -1.10579
H         14.81528        39.30195        -2.16197
H         18.51669         2.45238        -1.20659
H         17.26420        39.32722        -2.10898
H         20.64520         3.71770        -1.22983
H         21.86335         5.87708        -1.16764
H         21.86419         8.33494        -1.03850
H         21.80906        10.31479        -1.01791
H         21.77235        12.71117        -0.67522
H         21.59112        14.74372        -0.84174
H         21.58009        17.11535        -0.19483
H         22.03787        18.64598         1.05564
H         21.97626        21.06155         0.82807
H         21.71636        22.46588        -0.51779
H         21.54893        24.63431        -1.65932
H         21.78020        27.64284        -1.12668
H         21.86511        29.89036        -0.06058
H         21.84923        31.71742         0.52736
H         21.86555        34.09562        -0.00242
H         21.87313        35.69987        -1.18874
H         21.84633        38.01354        -2.05457
H         19.70055        39.26112        -2.27563
