         429
 CSIRO Nanostructure Databank - Neutral Graphene Oxide Data Set
C          2.14566         2.35511        -3.65898
C          2.01756         3.73908        -3.34008
C          3.22695         1.61462        -3.24797
C          2.92569         4.38618        -2.51555
C          1.77790         6.60273        -2.73336
C          1.81729         7.95301        -2.79431
C          2.92707         5.81758        -2.33004
C          3.12105         8.68984        -2.65373
C          1.90321        10.90470        -2.74293
C          1.79394        12.24905        -2.53028
C          2.97295        10.12676        -2.19831
C          2.65900        12.93726        -1.57728
C          2.43749        15.09082        -2.90937
C          2.55046        16.41669        -3.05477
C          2.60843        14.46295        -1.54544
C          2.90113        17.28590        -1.85696
C          3.26995        18.68437        -2.26403
C          4.24492         2.20371        -2.42393
C          4.00863         3.57375        -1.91459
C          5.37372         1.51820        -2.02797
C          5.13038         4.27027        -1.16882
C          4.03731         6.50048        -1.77432
C          4.11463         7.90789        -1.82599
C          5.04934         5.77365        -0.89883
C          5.22653         8.60192        -1.26984
C          3.99462        10.73954        -1.48226
C          3.86475        12.13820        -1.03593
C          5.20634        10.03186        -1.14646
C          5.07706        12.85850        -0.60894
C          3.79594        15.12515        -0.82563
C          4.00523        16.56038        -1.09725
C          5.00291        14.30829        -0.34680
C          5.16898        17.19161        -0.70242
C          4.35757        19.30895        -1.78118
C          5.34020        18.61630        -0.96355
C          6.47932         2.17182        -1.37418
C          6.43027         3.57681        -1.11068
C          7.65546         1.46070        -1.08794
C          7.61030         4.28950        -0.80385
C          6.39471         6.45710        -0.88264
C          6.39639         7.88072        -0.87521
C          7.57684         5.72760        -0.72494
C          7.56735         8.60663        -0.47746
C          6.31998        10.73399        -0.63020
C          6.27584        12.17187        -0.43849
C          7.52103        10.02318        -0.31260
C          7.46489        12.86456         0.03931
C          6.26467        15.02929        -0.09302
C          6.28247        16.45404        -0.12369
C          7.43436        14.29474         0.19977
C          7.45093        17.14628         0.28121
C          6.44584        19.28048        -0.49988
C          7.51629        18.58431         0.15973
C          8.80742         2.11694        -0.59989
C          8.82154         3.56032        -0.53229
C          9.96572         1.39542        -0.23623
C          9.99500         4.21381        -0.11128
C          8.83328         6.46945        -0.55537
C          8.76616         7.90027        -0.20961
C         10.09618         5.67274        -0.18926
C          9.89459         8.57224         0.29535
C          8.67813        10.71484         0.15398
C          8.64262        12.15085         0.32793
C          9.84694         9.97445         0.46368
C          9.78353        12.83370         0.92254
C          8.59013        14.97889         0.72857
C          8.58154        16.43254         0.79343
C          9.69740        14.25085         1.16929
C          9.72730        17.13853         1.21193
C          8.64259        19.27311         0.57714
C          9.77755        18.58364         1.11139
C         11.11479         2.03869         0.25580
C         11.12938         3.49097         0.36709
C         12.29813         1.31463         0.51997
C         12.25008         4.16985         0.87054
C         11.16969         6.34194         0.54365
C         11.02890         7.77288         0.84319
C         12.26807         5.60172         1.01085
C         12.21167         8.45597         1.46379
C         11.07122        10.70779         0.84749
C         10.95587        12.12856         1.20455
C         12.29090         9.93943         1.29455
C         11.97996        12.67390         2.17354
C         10.71348        14.96391         2.04086
C         10.90583        16.43174         1.65768
C         12.02887        14.19850         2.23233
C         12.06922        17.11953         1.91244
C         10.89143        19.29211         1.52122
C         12.13736        18.63111         2.00745
C         13.47325         1.96304         0.94030
C         13.38436         3.37755         1.47035
C         14.69339         1.29217         0.96364
C         14.69852         4.12371         1.44512
C         13.45799         6.26541         1.51946
C         13.47904         7.69712         1.67388
C         14.67871         5.53427         1.66287
C         14.61374         8.37354         2.08780
C         13.39279        10.63042         1.97573
C         13.35792        12.02344         2.08408
C         14.56949         9.82771         2.34542
C         14.57023        12.76121         2.12473
C         13.34035        14.91926         2.19866
C         13.35129        16.41278         2.07693
C         14.60639        14.17504         1.96341
C         14.58856        17.10824         1.60014
C         13.33116        19.21716         1.28386
C         14.51493        18.52248         1.13227
C         15.92517         1.98004         1.16568
C         15.91010         3.42179         1.38004
C         17.13483         1.29790         1.06502
C         17.15097         4.12642         1.47697
C         15.91560         6.21584         1.93680
C         15.86933         7.62703         2.50883
C         17.11804         5.52792         1.79357
C         17.15397         8.44185         2.30712
C         15.88558        10.57457         2.46859
C         15.82843        11.99400         1.98754
C         17.15753         9.80624         2.32094
C         17.09264        12.74809         1.75368
C         15.77407        14.87311         1.60406
C         15.68036        16.25806         0.99387
C         17.04408        14.21839         1.53774
C         16.97849        17.01466         0.88650
C         15.73302        19.12579         0.72419
C         16.95853        18.39612         0.69039
C         18.38310         1.98339         1.11065
C         18.38154         3.41085         1.31970
C         19.59219         1.30067         0.90458
C         19.62820         4.08978         1.28332
C         18.41791         6.22812         1.97486
C         18.44693         7.69804         2.28146
C         19.60968         5.56007         1.34752
C         19.69042         8.48168         1.86892
C         18.41903        10.60618         2.40667
C         18.37906        12.11363         2.16948
C         19.73629         9.92809         2.35799
C         19.58025        12.80680         1.70519
C         18.20334        14.86307         1.13742
C         18.19722        16.23082         0.49915
C         19.45173        14.10162         1.06542
C         19.49543        17.01072         0.64680
C         18.21628        19.08992         0.45650
C         19.42815        18.44826         0.49129
C         20.84578         1.96964         0.88917
C         20.84527         3.40850         1.08366
C         22.04390         1.27419         0.63510
C         22.09819         4.10438         1.17986
C         20.92927         6.29273         1.33406
C         20.95370         7.63431         1.95239
C         22.16434         5.48029         1.39617
C         22.17647         8.06551         2.36490
C         20.86827        10.72841         2.22066
C         20.77712        11.98837         1.38652
C         22.19163        10.23046         2.39442
C         22.05969        12.76597         1.35569
C         20.74337        14.88292         0.84264
C         20.71005        16.36071         0.75497
C         22.00102        14.22746         1.30523
C         21.98495        17.06291         0.59836
C         20.70665        19.26001         0.40375
C         21.97446        18.44195         0.29071
C         23.31792         1.92659         0.63141
C         23.34459         3.31229         1.17382
C         24.49035         1.32968         0.22373
C         24.66108         4.05552         1.19483
C         23.42540         6.15538         1.56710
C         23.43683         7.54854         1.87349
C         24.64890         5.51428         1.32514
C         24.56987         8.35677         1.65567
C         23.32704        10.70973         1.77404
C         23.28031        12.10160         1.36577
C         24.46641         9.83990         1.27062
C         24.52372        12.78849         1.10437
C         23.29678        14.98207         1.11295
C         23.22637        16.36941         0.60642
C         24.52423        14.18862         0.91100
C         24.42853        17.01851         0.24653
C         23.17467        19.08016        -0.05561
C         24.39219        18.38877        -0.10344
C         25.74648         2.11649        -0.07118
C         25.86196         3.43371         0.64470
C         27.04057         1.36664        -0.03083
C         27.05178         4.15694         0.63989
C         25.84378         6.26256         1.24440
C         25.79909         7.69595         1.33644
C         27.07542         5.57274         0.97750
C         27.00801         8.43544         1.15427
C         25.77518        10.59788         1.23301
C         25.75158        12.00801         1.03404
C         26.99204         9.88046         1.11457
C         26.95671        12.68078         0.70192
C         25.68450        14.87858         0.48195
C         25.69112        16.27846         0.23856
C         26.89709        14.08271         0.25839
C         26.91359        16.98232         0.06791
C         25.63876        19.10999        -0.56122
C         26.92396        18.41883        -0.16638
C         28.25369         2.06230         0.02734
C         28.28051         3.49026         0.30107
C         29.49293         1.39785        -0.18615
C         29.50379         4.19566         0.35643
C         28.27977         6.29111         0.94622
C         28.24966         7.73580         1.05106
C         29.52610         5.60327         0.68766
C         29.46260         8.45576         0.98844
C         28.21470        10.58602         0.89249
C         28.19514        11.99638         0.68204
C         29.45774         9.86917         0.84487
C         29.43913        12.71755         0.51729
C         28.20752        14.83991         0.07980
C         28.17113        16.30826         0.15676
C         29.45877        14.12747         0.37365
C         29.38072        17.00481         0.20445
C         28.08427        19.12356        -0.10744
C         29.37498        18.50442         0.35309
C         30.71785         2.09568        -0.17495
C         30.73284         3.51119         0.11435
C         31.93701         1.43394        -0.44711
C         31.96642         4.20983         0.17406
C         30.74889         6.28586         0.76541
C         30.74910         7.71946         1.25881
C         31.98256         5.61326         0.50401
C         31.97189         8.47329         0.80446
C         30.67616        10.57109         0.60265
C         30.67487        12.00195         0.50924
C         31.90425         9.80838         0.48648
C         31.88812        12.74970         0.41822
C         30.66581        14.86339         0.37598
C         30.63435        16.30897         0.19425
C         31.89886        14.15205         0.42540
C         31.80730        17.02301        -0.09501
C         30.62336        19.15871        -0.17875
C         31.79590        18.45526        -0.31890
C         33.17040         2.12286        -0.42728
C         33.18944         3.52512        -0.08824
C         34.38162         1.47113        -0.74668
C         34.42937         4.21554        -0.02588
C         33.23167         6.28848         0.56022
C         33.28010         7.73803         1.00384
C         34.44391         5.61307         0.30798
C         34.47233         8.42383         0.40414
C         33.10484        10.52726         0.00055
C         33.12890        12.01855         0.06742
C         34.39977         9.77649        -0.09352
C         34.44995        12.70666         0.33460
C         33.17896        14.88977         0.27998
C         33.12069        16.36816        -0.07105
C         34.39919        14.15028        -0.04027
C         34.19603        16.96773        -0.97306
C         33.07682        19.13322        -0.50742
C         34.26616        18.49388        -0.73539
C         35.61747         2.15720        -0.71724
C         35.64816         3.53745        -0.31702
C         36.82366         1.52922        -1.11126
C         36.90333         4.21712        -0.22444
C         35.70992         6.30903         0.33199
C         35.68908         7.75461         0.33257
C         36.92369         5.62185         0.11352
C         36.93323         8.48608         0.23032
C         35.72349        10.54819        -0.27264
C         35.66837        12.00715        -0.19077
C         37.01168         9.87626        -0.01886
C         36.84522        12.72464        -0.42138
C         35.56877        14.83372        -0.42174
C         35.48898        16.18391        -0.88136
C         36.82228        14.14340        -0.52205
C         36.64115        16.69453        -1.51944
C         35.50478        19.27960        -0.77579
C         36.59569        18.91021        -1.51189
C         38.05107         2.21614        -1.07592
C         38.09797         3.55403        -0.56496
C         39.25107         1.60754        -1.56521
C         39.41441         4.20778        -0.39727
C         38.17118         6.33214         0.23103
C         38.09223         7.69392         0.49006
C         39.49567         5.65378         0.07968
C         39.83318         8.74819        -0.22027
C         38.19325        10.63570        -0.42126
C         38.05017        11.98670        -0.74744
C         39.45412         9.97156        -0.79907
C         39.01787        12.68754        -1.62305
C         38.12567        14.89520        -0.67159
C         37.92552        16.27238        -1.25498
C         39.11695        14.15247        -1.57005
C         39.16114        17.09160        -1.51449
C         37.95634        19.40183        -1.61959
C         39.01630        18.56640        -1.92279
C         40.44946         2.30918        -1.61544
C         40.56894         3.60326        -1.08379
C         41.79555         4.33765        -1.16228
C         40.83680         6.45666        -0.10179
C         40.71745         7.82600        -0.78892
C         41.91862         5.62904        -0.75665
C         41.46302         8.29456        -1.88303
C         40.32031        10.47301        -1.80404
C         40.15021        11.88300        -2.26482
C         41.32100         9.62380        -2.31190
C         41.29194        12.68097        -2.73048
C         40.12148        14.81812        -2.25921
C         40.18569        16.28661        -2.30863
C         41.21649        14.03534        -2.81418
C         41.21115        16.97513        -2.90389
C         40.24252        19.16923        -2.39160
C         41.26827        18.41034        -2.88279
O         36.41889        17.79443        -2.36234
O          4.05675         3.58450        -0.43408
O          2.65820        12.38436        -0.22807
O         27.48840        14.29207        -1.07565
O         38.92361        12.14810        -3.00581
O         11.12876         8.01624         2.32916
O         20.13463        14.19674        -0.30110
O         39.20622         8.37527         0.97425
O          3.90902        14.72752         0.56730
O         16.43420        12.05831         0.63013
O         20.12320         6.16529         0.11459
O         33.48077        15.96146         1.28223
O         14.33260        16.99132         3.03109
O         32.92356        11.34690        -1.20726
O         35.00910         9.93988        -1.41414
O          9.86635         6.18750        -1.56230
O         12.18802        10.38773        -0.11348
O         12.68742        14.57049         3.48975
O         18.35979        11.57621         3.53731
O         15.14042        10.25101         3.66489
O         24.12323         3.38144         2.41742
O         22.65939        14.87323         2.44386
O         39.70329         4.57246         1.03213
O         22.30149         9.13436         3.24862
O         18.65308         6.72517         3.34503
O         41.30525         6.73094         1.24171
H         41.13009         5.92016         1.77000
O         34.56299        12.65809         1.81387
H         35.26349        13.29237         2.08047
O         39.80748        17.25463        -0.18182
H         40.67886        17.68062        -0.33595
O          1.73550        17.42887        -1.01075
H          1.42329        16.51725        -0.77148
O         38.72311        14.94751         0.66091
H         39.31112        15.74296         0.67762
O          3.69458         8.77499        -4.01625
H          3.76659         7.85752        -4.35588
O         25.56533         2.51175        -1.51305
H         26.42225         2.88248        -1.81795
O         24.11356         9.69446        -0.16953
H         24.08842        10.59487        -0.56047
O         20.62033        20.20947        -0.66876
H         20.42472        19.72035        -1.49403
O         15.74777         7.45987         3.95585
H         15.62403         8.36156         4.33619
O         19.47034         8.72732         0.44281
H         20.07496         9.44596         0.13491
O         18.06278        15.96329        -0.95979
H         18.77185        15.30783        -1.17714
O         11.46626        12.24939         3.47434
H         11.91059        12.81268         4.14832
O         13.04182         3.23552         2.89718
H         13.80175         2.80094         3.33970
O         15.25787        16.02725        -0.39551
H         16.07712        15.81596        -0.90833
O         29.43299        18.76733         1.81709
H         30.26279        18.36020         2.14809
O         12.31829        18.94554         3.43102
H         13.11224        18.43547         3.72197
O         30.82629         7.60987         2.74691
H         30.61669         8.49604         3.11348
O         20.58826        11.42447         0.00112
H         20.40604        12.20455        -0.57730
O         33.69775        16.79071        -2.32981
H         34.37658        17.16923        -2.93226
O          4.54854         5.93390         0.46267
H          3.92942         5.18129         0.61683
O         25.61378        19.20822        -1.99782
H         24.72610        19.52217        -2.26628
O         33.51165         7.72289         2.45443
H         32.65727         7.43953         2.87005
O         10.08676        15.02823         3.35349
H         10.80328        15.23443         3.99594
O          1.42244        14.76511        -0.75356
H          1.56746        14.32497         0.11545
H          1.38028         1.89402        -4.29876
H          1.19609         4.30103        -3.80522
H          3.33490         0.56452        -3.55483
H          0.82870         6.08095        -2.92233
H          0.90535         8.50794        -3.05496
H          1.21176        10.42851        -3.45149
H          1.05734        12.83349        -3.09864
H          2.19385        14.45227        -3.77203
H          2.40290        16.88516        -4.04023
H          2.55161        19.22410        -2.89876
H          5.49755         0.46455        -2.31999
H          4.56122        20.35937        -2.03937
H          7.67819         0.37103        -1.23592
H          6.55579        20.35971        -0.68279
H          9.96624         0.29979        -0.33592
H          8.68622        20.36697         0.47089
H         12.33282         0.24077         0.28004
H         10.87768        20.39171         1.47483
H         14.72537         0.22264         0.70405
H         13.28432        20.27717         0.99070
H         17.12881         0.21114         0.89326
H         15.74466        20.19953         0.48521
H         19.56801         0.21282         0.73992
H         18.19040        20.17988         0.30847
H         21.99434         0.20340         0.38435
H         20.79297        19.86983         1.34789
H         24.46193         0.28973        -0.13862
H         23.14946        20.15297        -0.30088
H         27.04610         0.29025        -0.25881
H         25.63212        20.15580        -0.13058
H         29.49130         0.31820        -0.39673
H         28.07700        20.20742        -0.30025
H         31.92410         0.35977        -0.68476
H         30.63594        20.25797        -0.23976
H         34.36189         0.41045        -1.03772
H         33.06963        20.23156        -0.42261
H         36.79784         0.48986        -1.46976
H         35.54031        20.19708        -0.16875
H         39.19873         0.58401        -1.96195
H         38.13293        20.49123        -1.63005
H         41.33384         1.84268        -2.07401
H         42.66768         3.82514        -1.59734
H         42.90551         6.11123        -0.81900
H         42.19169         7.64204        -2.38448
H         41.97301         9.98940        -3.11768
H         42.22134        12.16791        -3.01832
H         42.08555        14.57224        -3.21858
H         42.02181        16.44938        -3.42637
H         40.28726        20.26601        -2.47095
H         42.14964        18.90105        -3.31867
