         300
 CSIRO Nanostructure Databank - Neutral Graphene Oxide Data Set
C         30.23014        31.92326        -1.38669
C         30.15359        33.11315        -1.05989
C         30.47078        36.06943         0.30681
C         30.47828        37.21315         0.77080
C         30.39835        40.51029         1.17361
C         30.10521        41.70688         1.49808
C         32.66636        29.08377        -1.34575
C         31.58167        29.66536        -1.26114
C         32.70305        31.89782        -1.59353
C         31.37795        31.06381        -1.65163
C         32.51396        33.43003        -1.58755
C         31.19242        34.12382        -1.29541
C         32.60815        36.28442        -0.74747
C         31.16124        35.59352        -0.92893
C         32.66025        37.69058        -0.18281
C         31.29771        38.37573         0.16598
C         32.71058        40.15108         1.61479
C         31.40679        39.60581         0.98981
C         32.66230        41.70247         1.83740
C         31.30953        42.48358         1.87927
C         32.64948        44.41947         1.56252
C         31.52069        43.91696         1.62393
C         35.36822        27.49999        -1.13705
C         34.97659        28.77861        -0.44213
C         34.06919        29.61606        -1.34698
C         35.32563        31.67330        -0.74177
C         33.89711        31.10012        -0.83919
C         35.55747        32.96805        -1.03430
C         33.72857        34.25788        -1.40878
C         35.10482        35.98834        -0.02840
C         33.86185        35.46021        -0.79787
C         35.20747        37.56456        -0.20313
C         33.92624        38.20008         0.38271
C         35.23446        40.30747         1.09768
C         33.93356        39.61383         0.84803
C         35.27431        41.71116         1.67225
C         33.98816        42.47021         1.83270
C         35.10137        44.61313         1.03255
C         34.00071        43.95401         1.49585
C         35.24892        45.99877         0.64561
C         37.63945        27.12723        -0.32471
C         36.43182        26.88980        -1.05285
C         37.65109        28.58325         0.15758
C         36.37410        29.41607         0.01604
C         37.80816        31.60474         0.00950
C         36.43812        30.93630        -0.03233
C         37.98506        33.02673        -0.53183
C         36.73746        33.80282        -0.74683
C         37.81415        35.90259         0.20372
C         36.53250        35.20212        -0.16550
C         37.80105        37.40046         0.40684
C         36.52494        38.19765         0.36167
C         37.76751        40.25173         1.27471
C         36.46287        39.42828         1.32494
C         37.72143        41.70264         0.90102
C         36.52237        42.48089         1.31704
C         37.46317        44.51932         0.00341
C         36.44775        43.94431         0.98079
C         37.67410        46.30799         0.40776
C         36.22990        46.60311         0.15959
C         40.16150        24.45013        -0.04420
C         39.02768        24.93736        -0.09854
C         40.48901        27.16711         0.61261
C         38.47859        26.22390         0.23986
C         40.34342        28.52143        -0.06216
C         39.02286        29.27618         0.32202
C         40.38586        31.39744        -0.17271
C         39.06099        30.78331         0.28654
C         40.47991        32.93948        -0.00376
C         39.26479        33.77474        -0.27107
C         40.31189        35.78609         0.85478
C         39.20751        35.30970        -0.11051
C         40.31534        37.28083         1.02468
C         38.95164        37.94163         1.25190
C         40.16028        40.12585         0.34796
C         39.03716        39.47364         1.11404
C         40.10100        41.62061         0.23619
C         38.85574        42.37915         0.56404
C         40.03138        44.65957         0.23954
C         38.82730        43.74109        -0.13884
C         40.01079        45.87951        -0.67845
C         38.81592        46.82039        -0.46864
C         40.12249        49.09208        -0.20461
C         39.31461        48.19235        -0.44202
C         42.74532        24.23564         0.16533
C         41.44852        24.81105         0.67929
C         42.84552        27.05626        -0.05911
C         41.57035        26.36473         0.44694
C         42.87234        28.49429         0.54601
C         41.64573        29.26626         0.09564
C         42.93327        31.42462        -0.05941
C         41.63965        30.72135         0.44151
C         42.99600        32.86979         0.44272
C         41.69704        33.57856         0.61282
C         42.94180        35.81981         1.12655
C         41.61610        35.04787         0.93391
C         42.81890        37.17289         0.29291
C         41.57661        37.99629         0.69063
C         42.74199        40.19039         0.29809
C         41.47721        39.37488         0.06068
C         42.70810        41.67138         0.27357
C         41.38602        42.39602         0.32250
C         42.61874        44.62045        -0.09620
C         41.36284        43.89591         0.23734
C         42.58866        45.86618        -0.63708
C         41.31942        46.41449        -1.19031
C         42.52881        49.01735        -0.24931
C         41.34384        49.79229        -0.06040
C         43.81184        24.85492         0.18028
C         45.42168        26.99085         0.35031
C         44.12740        26.27246         0.32178
C         45.45271        28.49711        -0.06531
C         44.17870        29.26699         0.29140
C         45.48277        31.40283         0.13187
C         44.19855        30.62909         0.25188
C         45.50618        32.91797         0.10201
C         44.18147        33.72182         0.02863
C         45.42016        35.87599         0.41838
C         44.20639        35.07908         0.68292
C         45.29710        37.29330        -0.05620
C         44.09173        38.05963         0.48922
C         45.24153        40.24789        -0.33600
C         43.98807        39.46671        -0.12328
C         45.25365        41.74450         0.00178
C         43.88801        42.42703        -0.33111
C         45.18020        44.68024         0.04747
C         43.90962        43.89395         0.10656
C         45.00342        46.27383         0.04856
C         43.83645        46.74524        -0.85389
C         43.31824        48.10539        -0.46723
C         47.87181        27.08002         0.07745
C         46.79111        26.49179         0.14705
C         48.07342        28.56426        -0.06602
C         46.72595        29.13885         0.54579
C         48.04955        31.44475         0.41293
C         46.75412        30.67874         0.50648
C         48.09218        32.97258         0.32348
C         46.78259        33.69480         0.39074
C         47.85021        35.78294        -0.64503
C         46.73334        35.19592         0.21049
C         47.85203        37.33429        -0.68824
C         46.52686        38.03674        -0.46232
C         47.82660        40.30860        -0.26681
C         46.53221        39.49656         0.00672
C         47.75623        41.75194        -0.70665
C         46.38794        42.49690        -0.72909
C         47.65972        44.65092        -0.44897
C         46.47186        43.97285        -0.31781
C         47.42416        46.07713        -0.33851
C         46.38309        46.74388        -0.34903
C         50.49154        28.82964         1.02277
C         49.26370        29.22763         0.59950
C         50.60541        31.53366         0.69134
C         49.35377        30.70628         0.31748
C         50.57950        33.03558         0.61112
C         49.37894        33.62933        -0.21189
C         50.33551        35.91058        -0.56152
C         49.22302        35.18054        -0.27181
C         50.44222        37.38716        -0.70646
C         49.12941        38.13117        -0.71801
C         50.41802        40.38564        -0.58273
C         49.14696        39.60822        -0.38150
C         50.37472        41.77471        -0.68602
C         49.06136        42.49970        -0.76236
C         50.26363        44.57065        -0.81840
C         48.99886        43.96949        -0.27421
C         51.52680        29.42408         1.52898
C         52.54686        31.74727         2.08210
C         51.68110        30.78714         1.48713
C         52.50904        32.99220         2.01031
C         51.68905        33.77162         1.10751
C         52.68745        36.21651         0.83815
C         52.07504        34.99152         0.50563
C         52.68380        37.35826         0.32884
C         51.71315        38.20478        -0.36053
C         52.72799        40.58045        -0.23507
C         51.63617        39.67518        -0.27552
C         52.75744        41.83756        -0.29298
C         51.71688        42.57230        -1.10750
C         51.35073        43.98081        -0.82976
O         37.51638        38.27859        -0.70796
O         41.20865        37.81158         2.07439
O         31.66674        33.95742        -2.66428
O         34.77765        42.02304         2.99333
O         31.91839        42.00867         3.08151
O         46.49827        35.84862         1.48270
O         42.42131        32.99981         1.75404
O         48.66710        40.05584         0.91950
O         44.63818        44.17665         1.32368
O         37.09748        35.15696         1.20853
O         47.57779        33.46537         1.58951
O         48.39847        42.08234        -1.99588
O         39.80023        40.77374        -0.91845
O         37.60324        33.45651        -1.89411
O         36.91017        31.59980         1.16928
O         51.50592        35.14397        -0.78831
O         50.35041        31.02110        -0.67598
O         34.79585        33.59805        -1.99921
O         45.64173        32.12962        -1.13380
O         38.97462        46.06631        -1.67862
O         39.02030        43.40065        -1.47125
O         40.25222        33.51429        -1.32962
O         36.91096        43.52597         2.29134
O         36.76619        28.83499         1.29276
O         51.40761        37.76609        -1.72804
O         38.70212        40.07710         2.39794
O         41.44334        43.21146         1.53882
O         32.72083        37.41906        -1.65278
O         48.40749        37.83010        -1.95835
O         39.09235        30.06605         1.54668
O         44.45365        39.78971        -1.46967
O         47.41912        31.12413         1.71238
O         39.32884        26.73681         1.25791
O         40.65929        35.10852         2.08080
O         42.90894        40.94182         1.53518
O         41.36348        47.22615        -2.11034
O         34.61410        40.41942        -0.22538
O         44.74110        26.67543         1.56855
O         32.15485        31.35251        -2.83146
O         45.56417        37.57256        -1.45656
O         46.49642        39.32499         1.43934
H         46.47036        40.21573         1.86188
O         38.62095        37.60352         2.61383
H         39.38754        37.85768         3.17556
O         40.20576        28.24278        -1.50698
H         40.24553        29.12834        -1.95231
O         42.71207        36.73681        -1.06231
H         42.48733        37.51444        -1.62832
O         30.62638        38.75792        -1.00320
H         30.56800        37.97050        -1.60762
O         41.51566        39.08863        -1.36230
H         40.91265        39.73382        -1.81429
O         49.49943        33.20150        -1.57461
H         50.35296        33.53363        -1.92682
O         43.09603        36.07555         2.53165
H         42.20112        36.03363         2.94554
O         43.59069        42.43866        -1.73538
H         43.87605        41.57791        -2.12577
O         47.56926        35.32498        -1.97897
H         48.00800        35.94193        -2.60863
O         43.92942        33.97682        -1.39443
H         44.62949        34.57013        -1.74411
O         49.15360        43.86659         1.15051
H         49.22990        44.76914         1.52444
O         45.50862        41.82638         1.41116
H         44.68432        41.55763         1.88958
O         33.41517        31.09419         0.51272
H         33.64373        30.23208         0.94454
O         46.67005        28.75620         1.91808
H         47.18698        29.40516         2.44817
O         45.51097        28.54790        -1.49546
H         44.68702        28.14089        -1.85301
O         44.22379        38.34585         1.88234
H         44.06257        37.52100         2.40917
O         48.12854        28.93195        -1.43196
H         48.98250        28.64483        -1.81537
O         42.75695        28.33449         1.97920
H         42.65978        29.23504         2.37320
O         34.59310        29.63730        -2.65478
H         33.92147        30.03491        -3.25307
O         32.82697        39.54125         2.90864
H         32.40708        40.14093         3.56810
O         51.95533        42.41100        -2.47512
H         52.16698        41.47442        -2.66612
O         44.66391        46.69367         1.34699
H         45.16183        46.16334         2.00482
O         41.37700        51.07371         0.26545
H         42.29335        51.40742         0.33939
O         41.61155        30.77305         1.88628
H         40.72531        30.43590         2.17813
O         42.90055        31.45740        -1.50641
H         43.70126        31.95889        -1.80787
O         45.99109        42.53580        -2.10995
H         46.80208        42.69569        -2.64950
O         36.26004        38.91809         2.64705
H         37.12756        38.57417         2.98376
O         39.55886        35.92326        -1.36368
H         40.07411        35.26995        -1.89449
O         40.35817        31.07696        -1.58144
H         41.18585        31.44223        -1.98969
O         39.90441        45.17475         1.56812
H         40.18461        44.46886         2.19627
O         44.21607        46.74040        -2.21616
H         43.42939        46.99440        -2.75027
O         30.50982        36.24343        -2.02226
H         30.75929        35.77463        -2.85053
O         34.26085        28.52151         0.74815
H         34.89626        28.15215         1.40596
O         35.22776        37.79706        -1.61220
H         35.15250        38.76308        -1.77058
O         42.85615        27.17441        -1.49503
H         41.94940        27.45029        -1.78487
O         37.94943        46.60259         1.73684
H         37.24179        46.24365         2.31116
O         34.67670        35.75911         1.31926
H         35.46869        35.65249         1.89839
O         41.27605        24.54223         2.03568
H         41.19052        23.57798         2.17562
O         36.84892        44.50186        -1.24334
H         37.55956        44.17361        -1.87625
