         429
 CSIRO Nanostructure Databank - Neutral Graphene Oxide Data Set
C          1.59553         3.49827         1.46003
C          0.44675         4.20417         1.78471
C          1.43708         6.29293         0.96759
C          0.36265         5.58101         1.54675
C          1.34565         7.70021         0.65500
C          0.14372         8.45055         0.93576
C          1.00358        10.46122        -0.20726
C         -0.02682         9.74248         0.55290
C          1.03417        12.00307        -0.22825
C         -0.04226        12.76541         0.42180
C          1.23448        14.84142         0.22182
C          0.05906        14.10012         0.62614
C          1.25143        16.30008         0.30812
C          0.13764        17.01843         0.81081
C          1.25864        19.15335         0.45049
C          0.14299        18.39942         0.88035
C          1.22208        20.60196         0.39303
C          0.15627        21.35317         0.84863
C          1.21271        23.51678         0.32343
C          0.16245        22.77283         0.82772
C          1.23633        24.97386         0.39342
C          0.12759        25.69251         0.89259
C          1.17025        27.82733         0.37794
C          0.09166        27.07997         0.88572
C          1.12549        29.29957         0.32823
C         -0.05498        30.05190         0.50155
C          1.15240        32.15774         0.14987
C         -0.03583        31.44210         0.42785
C          1.19771        33.61844         0.03794
C         -0.01296        34.41059         0.06726
C          1.21680        36.54746         0.02626
C         -0.02983        35.77227        -0.00277
C          1.26518        37.99321        -0.32477
C          3.89345         3.46404         0.58628
C          2.71368         4.16981         0.89305
C          3.76007         6.26692         0.09324
C          2.63622         5.58324         0.64025
C          3.66270         7.67328        -0.19109
C          2.42955         8.34707         0.02373
C          3.56502        10.53634        -0.76295
C          2.27911         9.72804        -0.48051
C          3.54094        12.00539        -0.59980
C          2.34117        12.68881        -0.37028
C          3.56578        14.83002        -0.65274
C          2.34453        14.12174        -0.22477
C          3.57609        16.33063        -0.60524
C          2.38954        17.04407        -0.09045
C          3.60777        19.20335        -0.38056
C          2.40995        18.45976        -0.01323
C          3.62846        20.58755        -0.41970
C          2.33424        21.29604        -0.28668
C          3.60785        23.52636        -0.64572
C          2.31288        22.80751        -0.36180
C          3.59042        25.01879        -0.56976
C          2.34982        25.71007        -0.09374
C          3.44927        27.88128        -0.70117
C          2.30554        27.11247        -0.08867
C          3.57583        29.22510         0.00162
C          2.31832        30.01404         0.08586
C          3.63548        32.05395        -0.47090
C          2.34472        31.41353        -0.00270
C          3.66568        33.56520        -0.34134
C          2.42403        34.26340        -0.16375
C          3.67799        36.39636        -0.70279
C          2.48134        35.73751        -0.09944
C          3.67663        37.88803        -0.90593
C          2.41264        38.62528        -0.64027
C          6.23546         3.43644        -0.17528
C          5.03336         4.13365         0.08755
C          6.14568         6.21935        -0.61013
C          4.97466         5.55057        -0.14292
C          6.05415         7.66260        -0.90586
C          4.82568         8.40653        -0.60276
C          6.07511        10.55137        -0.62680
C          4.84424         9.80994        -0.67161
C          6.04680        11.98489        -0.52290
C          4.81528        12.70530        -0.55237
C          6.07547        14.84685        -0.48887
C          4.85413        14.11888        -0.56274
C          6.08148        16.31221        -0.50854
C          4.88342        17.00717        -0.53948
C          6.16480        19.22443        -0.57558
C          4.84022        18.46185        -0.68725
C          6.10437        20.66009        -0.29250
C          4.87131        21.34871        -0.43539
C          6.09665        23.47844        -0.28033
C          4.88545        22.77390        -0.46331
C          6.19473        24.95573        -0.70302
C          4.87707        25.77455        -0.57892
C          5.91709        28.00701        -0.96208
C          4.77170        27.13171        -0.73724
C          6.08110        29.25108        -0.42484
C          4.87969        29.92002         0.14121
C          6.15297        32.06159        -0.26720
C          4.86613        31.44441         0.27273
C          6.16892        33.52636        -0.52444
C          4.88241        34.25314        -0.42024
C          6.16426        36.36040        -0.69067
C          4.95396        35.67987        -0.55535
C          6.17039        37.80915        -0.88503
C          4.98852        38.53914        -0.91286
C          8.63383         3.41910        -0.71624
C          7.40670         4.11770        -0.56257
C          8.61675         6.26504        -1.20299
C          7.35801         5.54236        -0.75364
C          8.62209         7.71520        -0.78086
C          7.37550         8.45560        -0.94866
C          8.52300        10.55925        -0.28748
C          7.31669         9.87713        -0.61111
C          8.47385        11.96362        -0.14583
C          7.27300        12.69988        -0.35790
C          8.54700        14.85483        -0.21049
C          7.28900        14.13712        -0.33959
C          8.56873        16.30946        -0.21663
C          7.33646        17.03953        -0.35426
C          8.53666        19.16485         0.15333
C          7.36348        18.44317        -0.25642
C          8.48801        20.56380         0.36015
C          7.29088        21.34097         0.07278
C          8.47036        23.48195         0.58939
C          7.26874        22.76419         0.09039
C          8.60816        24.90048         0.30984
C          7.34532        25.67532         0.03555
C          8.75386        27.74738        -0.13849
C          7.77324        26.94732        -0.63564
C          8.71368        29.19213        -0.29747
C          7.40557        29.87489        -0.15843
C          8.70066        32.10187        -0.19547
C          7.43964        31.37359         0.04353
C          8.69707        33.51100        -0.37868
C          7.44869        34.26431        -0.43964
C          8.67808        36.40472        -0.55356
C          7.41634        35.64437        -0.54376
C          8.65137        37.83274        -0.96312
C          7.43023        38.48929        -1.03789
C         11.10524         3.42338        -0.64336
C          9.87005         4.11738        -0.76448
C         11.06528         6.25004        -0.54905
C          9.87346         5.54027        -0.79974
C         11.04514         7.69213        -0.39409
C          9.79865         8.39802        -0.45226
C         10.99247        10.50627        -0.01765
C          9.77715         9.83028        -0.21906
C         10.99232        11.93381         0.33207
C          9.67765        12.69171         0.26572
C         11.02026        14.79525         0.00887
C          9.71268        14.14410         0.04981
C         11.05164        16.30718        -0.07259
C          9.76664        17.01979        -0.01581
C         11.01652        19.10012         0.42514
C          9.78373        18.43193         0.23436
C         11.01854        20.49563         0.88941
C          9.67524        21.22495         0.92461
C         11.02194        23.42060         1.21718
C          9.68087        22.72007         1.07183
C         11.03740        24.93578         1.15823
C          9.74556        25.64984         0.87737
C         11.12468        27.91661         0.84178
C          9.80818        27.14454         0.71345
C         11.14344        29.20891         0.02521
C          9.88276        29.91396        -0.18305
C         11.12745        32.02691        -0.54565
C          9.90424        31.36748        -0.26740
C         11.14584        33.42157        -0.69557
C          9.93900        34.16053        -0.58366
C         11.11348        36.33239        -1.38875
C          9.96986        35.63923        -0.64098
C         11.12141        37.81201        -1.06061
C          9.89619        38.50773        -1.07255
C         13.60553         3.39668        -0.27622
C         12.29757         4.12570        -0.47719
C         13.55522         6.23996        -0.01076
C         12.28004         5.53168        -0.38846
C         13.50598         7.72412        -0.24695
C         12.26395         8.40913        -0.23103
C         13.48223        10.55849         0.01315
C         12.24685         9.83658        -0.09889
C         13.50954        11.96551         0.24960
C         12.26543        12.69167         0.31532
C         13.46349        14.81187         0.85735
C         12.24772        14.06339         0.37647
C         13.49277        16.28651         0.50196
C         12.30458        17.00228         0.28073
C         13.49918        19.12828         0.57803
C         12.27431        18.41440         0.38777
C         13.48078        20.56083         0.66317
C         12.28702        21.27003         0.82095
C         13.50414        23.43481         0.93032
C         12.28603        22.69800         0.93774
C         13.51546        24.89939         0.90403
C         12.30742        25.63929         0.82842
C         13.57358        27.68137         0.38469
C         12.34011        27.03031         0.58387
C         13.58387        29.15848         0.14134
C         12.31982        29.82327        -0.27216
C         13.63698        31.91966        -0.83617
C         12.32227        31.18373        -0.96356
C         13.72397        33.39718        -1.20793
C         12.33119        34.09631        -1.37510
C         13.49226        36.26253        -0.62101
C         12.39679        35.59418        -1.07788
C         13.53540        37.72955        -0.61594
C         12.33316        38.46230        -0.82970
C         15.93991         3.52914        -1.25368
C         14.78883         4.18275        -0.79522
C         15.87213         6.37014        -1.00401
C         14.76124         5.59072        -0.65101
C         15.92440         7.77223        -0.72856
C         14.70865         8.44834        -0.36892
C         15.95781        10.56000        -0.11774
C         14.71112         9.86655        -0.19224
C         15.97098        11.97521         0.15674
C         14.74709        12.67357         0.30425
C         15.95450        14.78467         0.70286
C         14.76467        14.09636         0.56204
C         15.91844        16.22573         1.19855
C         14.69580        16.99245         0.73116
C         15.94850        19.10332         1.20860
C         14.71179        18.39423         0.71037
C         16.00726        20.56614         0.85269
C         14.76690        21.30072         0.42858
C         15.98173        23.41024         1.04203
C         14.74447        22.74924         0.84175
C         15.98974        24.88802         1.39407
C         14.74955        25.60127         0.89150
C         16.09446        27.73359         0.71855
C         14.78031        26.97514         0.60373
C         16.10970        28.98366        -0.15219
C         14.88299        29.84073        -0.14710
C         16.02062        32.08162        -0.53944
C         14.82667        31.26319        -0.64570
C         15.92165        33.44109        -0.11111
C         14.74758        34.10310        -0.34404
C         15.98714        36.26857        -0.11183
C         14.65506        35.55234         0.03146
C         15.99188        37.69326        -0.26446
C         14.74826        38.39098        -0.43842
C         18.30276         3.63602        -2.03001
C         17.08047         4.25263        -1.66628
C         18.36795         6.51128        -1.67496
C         17.00559         5.71306        -1.64808
C         18.39334         7.83723        -1.05977
C         17.15485         8.49399        -0.73813
C         18.45485        10.48070         0.12462
C         17.16304         9.84952        -0.30764
C         18.43630        11.98981         0.09425
C         17.21770        12.68322         0.23888
C         18.44192        14.78129         0.63027
C         17.21789        14.10380         0.51208
C         18.47419        16.18168         1.19657
C         17.21076        16.96971         0.97348
C         18.48573        19.06407         0.95770
C         17.23673        18.34186         0.95945
C         18.49832        20.55144         0.70617
C         17.18892        21.26058         0.94896
C         18.42629        23.38554         1.60359
C         17.18857        22.69605         1.06200
C         18.51882        24.81604         1.12013
C         17.28425        25.54376         0.95630
C         18.59666        27.38859         0.06427
C         17.29304        26.82798         0.47757
C         18.61989        28.80683        -0.46756
C         17.27553        29.36190        -0.71732
C         18.46252        32.02729        -0.17924
C         17.29273        31.54644        -0.76808
C         18.45092        33.40177         0.22368
C         17.13615        34.12323         0.48487
C         18.42757        36.26796         0.12898
C         17.17814        35.58244         0.09129
C         18.43435        37.69175        -0.00739
C         17.21243        38.38044        -0.20533
C         19.50386         4.33994        -2.07154
C         20.81099         6.37543        -1.47621
C         19.58976         5.71462        -1.75288
C         20.83875         7.71019        -1.10834
C         19.64883         8.46189        -0.86511
C         20.85805        10.60723        -0.49293
C         19.69230         9.85106        -0.46534
C         20.86616        11.97266        -0.16028
C         19.67728        12.68397         0.11516
C         20.88579        14.83165         0.48891
C         19.68115        14.10606         0.40938
C         20.90219        16.22348         0.66862
C         19.73528        16.94559         0.89130
C         20.94130        19.14204         0.97960
C         19.70771        18.38319         0.93483
C         20.95122        20.49287         1.16606
C         19.73256        21.26085         1.21088
C         20.93133        23.38508         1.62771
C         19.72088        22.62245         1.43393
C         20.94441        24.73965         1.47789
C         19.75325        25.46635         1.09606
C         20.96892        27.62348         0.56568
C         19.83021        26.83719         0.63310
C         20.90948        29.02097         0.27321
C         19.76730        29.67966        -0.14134
C         20.91292        32.00323        -0.15523
C         19.68249        31.18899         0.18845
C         20.88116        33.35443        -0.05474
C         19.66210        34.09695         0.24845
C         20.85121        36.29176         0.40333
C         19.66420        35.55606         0.30024
C         20.84735        37.69646         0.30999
C         19.67173        38.38996         0.08752
O         11.97394        33.90073        -2.75312
O         18.82058        27.67939        -1.38068
O          0.53649        11.21213        -1.36184
O         14.30193        29.86837         1.23209
O          9.56153        36.23626         0.62853
O         17.49330         6.38794        -2.83595
O          1.89300        21.99704        -1.50635
O          3.48807        24.32127        -1.88623
O          3.37478        15.62254        -1.88487
O          2.74270         9.95998        -1.83438
O          5.56202        18.91224        -1.87650
O          6.15244        32.51970        -1.65363
O         11.21840        15.50233        -1.29685
O          2.07781        36.27163         1.20405
O          6.64639         8.07452        -2.18360
O          4.29051        29.21120         1.29228
O         17.32384        30.43706        -1.61211
O         11.09194        24.23594         2.43548
O         10.23551        20.61644         2.13269
O          9.34426        26.60553         1.99963
O          8.71304        23.15887         2.05639
O         10.22178        12.22962         1.55786
O          6.99028        27.45141        -1.67476
O          3.48284        36.93797        -2.04809
O          7.37239        30.51554         1.20166
O         18.61710        20.65511        -0.77600
H         19.48986        20.27680        -1.02017
O          8.61110         6.26113        -2.67668
H          7.84556         6.82769        -2.94640
O          4.77310        31.79927         1.65995
H          4.60692        30.96891         2.16379
O         15.76909        16.15302         2.67335
H         16.66278        15.90327         3.02536
O         11.25466        28.33690         2.22058
H         10.70901        27.72004         2.76337
O         15.80433        19.09079         2.67368
H         15.73516        18.14149         2.94415
O         12.14316        30.99943        -2.40442
H         12.02406        31.91595        -2.77910
O         18.54369        10.15044         1.58213
H         19.37921        10.54830         1.90968
O         14.35420        33.49947        -2.51502
H         13.57978        33.65473        -3.14005
O         10.81399        36.23600        -2.79790
H         11.15624        35.33303        -3.08605
O         15.94906        24.98085         2.85740
H         15.06373        24.68144         3.15582
O         18.22847        23.44205         3.05492
H         17.45431        24.04029         3.22593
O          3.09574        28.18223        -2.07699
H          2.93773        27.33517        -2.54466
O         13.32501        14.80295         2.32207
H         14.13679        15.23420         2.69334
O         16.95427        34.10831         1.93582
H         16.08746        34.54840         2.11388
O         19.62187        31.16100         1.66080
H         19.50799        32.08352         1.97825
O         13.70742         6.06599         1.44280
H         13.68870         5.09028         1.61191
O          6.52268        24.88739        -2.10669
H          5.72121        24.57388        -2.58184
O         13.78171         3.22412         1.15349
H         14.66401         2.82537         1.30372
O         14.38748        35.54932         1.48693
H         14.15515        36.46752         1.74472
O         14.88207        21.34315        -1.06448
H         15.78651        21.66399        -1.27627
O         18.50516        15.96458         2.68645
H         19.34898        15.50282         2.88608
O          3.69589        31.70185        -1.87245
H          4.52349        32.09552        -2.24717
O          6.77121        26.03988         1.32908
H          7.51748        26.33860         1.91038
O         16.21778        28.15432         2.10455
H         15.48617        28.80254         2.26084
H          1.65774         2.41688         1.64679
H         -0.41112         3.68124         2.22989
H         -0.56791         6.09873         1.81276
H         -0.67931         7.95589         1.46804
H         -0.98323        10.24465         0.75191
H         -0.98503        12.25095         0.65162
H         -0.79432        14.62856         1.06959
H         -0.76453        16.48832         1.14045
H         -0.75461        18.91124         1.25177
H         -0.71449        20.85984         1.30131
H         -0.69744        23.27655         1.28841
H         -0.74537        25.15414         1.28347
H         -0.79698        27.59152         1.27993
H         -1.01229        29.54505         0.68806
H         -0.98104        31.98318         0.57280
H         -0.97693        33.88228         0.07553
H         -0.98597        36.30789        -0.09950
H          0.33227        38.56990        -0.22620
H          3.93944         2.38026         0.76821
H          2.41359        39.71394        -0.80477
H          6.27009         2.34790        -0.01971
H          5.03542        39.63870        -0.94281
H          8.63987         2.32250        -0.62962
H          7.41190        39.56743        -1.26116
H         11.10913         2.32331        -0.64383
H          9.90322        39.60979        -1.08691
H         13.56727         2.38101        -0.75978
H         12.35388        39.55816        -0.71830
H         15.95978         2.42876        -1.29078
H         14.77062        39.48991        -0.49439
H         18.32025         2.54472        -2.16673
H         17.22284        39.47630        -0.30172
H         20.43764         3.78509        -2.24575
H         21.75381         5.81742        -1.57215
H         21.81473         8.18272        -0.93323
H         21.80435        10.15320        -0.81930
H         21.82837        12.49955        -0.19206
H         21.84536        14.32546         0.32434
H         21.86724        16.73891         0.57055
H         21.89959        18.60652         0.96896
H         21.91619        20.99606         1.31543
H         21.87859        22.86478         1.82628
H         21.89059        25.28810         1.58334
H         21.93764        27.21685         0.88985
H         21.80780        29.60895         0.51456
H         21.85867        31.49632        -0.39631
H         21.80094        33.92371        -0.25260
H         21.80807        35.77673         0.56454
H         21.79734        38.24162         0.39919
H         19.67945        39.48527        -0.00597
