         234
 CSIRO Nanostructure Databank - Neutral Graphene Oxide Data Set
C          2.24083         2.64019        -3.09787
C          2.20759         3.98479        -2.87265
C          3.25622         1.81984        -2.52321
C          3.19300         4.62838        -1.99129
C          1.67610         6.75754        -1.68284
C          1.53712         8.01693        -1.23201
C          2.94975         6.01677        -1.45758
C          2.68049         8.75117        -0.62755
C          1.26941        10.76977        -0.05568
C          1.10335        11.95098         0.67970
C          2.50897        10.10982        -0.04768
C          2.22181        12.57218         1.22619
C          1.12868        15.71593         1.50785
C          1.22308        16.94716         0.88967
C          2.24513        14.86037         1.51185
C          2.44261        17.33782         0.29973
C          2.49726        18.61753        -0.35318
C          4.22066         2.34552        -1.66964
C          4.17674         3.75661        -1.28987
C          5.29477         1.54284        -1.18989
C          5.03952         4.25706        -0.35360
C          3.63016         6.41952        -0.15831
C          3.83528         7.93158        -0.13068
C          4.90496         5.64054         0.16455
C          4.81335         8.47836         0.82969
C          3.61567        10.71008         0.59349
C          3.53580        12.06565         1.04866
C          4.74860         9.91487         1.09430
C          4.73062        12.84031         1.24786
C          3.49618        15.19618         0.96392
C          3.59519        16.49424         0.36808
C          4.72176        14.33305         1.14013
C          4.83690        17.00396        -0.17093
C          3.65696        19.08212        -0.89027
C          4.86237        18.30705        -0.78427
C          6.29087         2.06943        -0.37467
C          6.09675         3.40046         0.31463
C          7.48414         1.35799        -0.15011
C          7.41408         4.14139         0.53684
C          6.12740         6.33320         0.69921
C          6.17944         7.86029         0.69244
C          7.42180         5.58804         0.73376
C          7.24475         8.41370         1.63631
C          5.94953        10.67667         1.67813
C          5.98451        12.13676         1.35098
C          7.23856         9.90753         2.06907
C          7.20670        12.73653         1.03086
C          6.02928        14.94946         0.61310
C          6.02922        16.25926        -0.08286
C          7.18769        14.04402         0.35525
C          7.26183        16.81090        -0.54152
C          6.06530        18.85225        -1.22707
C          7.28220        18.14979        -1.07292
C          8.62948         1.99100         0.37156
C          8.56930         3.40925         0.70949
C          9.86014         1.29655         0.34015
C          9.80938         4.05256         1.21564
C          8.56800         6.26533         1.05082
C          8.54645         7.68157         1.52949
C          9.80584         5.54502         1.54061
C          9.82323         8.44224         1.45579
C          8.56065        10.62483         1.70178
C          8.51428        12.07386         1.22890
C          9.80497         9.84668         1.42250
C          9.76486        12.69036         0.71711
C          8.49284        14.67535        -0.10011
C          8.49878        16.11747        -0.40560
C          9.76725        14.01180         0.22882
C          9.72429        16.75984        -0.65322
C          8.50689        18.76509        -1.39267
C          9.72993        18.11545        -1.14692
C         11.09973         1.93670         0.51054
C         11.10726         3.33165         1.02626
C         12.31509         1.28086         0.29200
C         12.41553         4.09602         1.00033
C         11.07195         6.28519         1.14892
C         11.03855         7.72202         1.20348
C         12.26006         5.60914         0.89839
C         12.25864         8.44899         1.06057
C         11.01465        10.58053         1.17497
C         10.99211        12.00579         0.92374
C         12.24556         9.87952         1.06714
C         12.22433        12.72622         0.80289
C         10.98055        14.73233         0.06981
C         10.97436        16.08528        -0.41520
C         12.22160        14.12486         0.43177
C         12.19315        16.76219        -0.64307
C         10.95996        18.76929        -1.37699
C         12.18045        18.12175        -1.11957
C         13.52816         2.01220         0.12391
C         13.37396         3.53861        -0.10114
C         14.73928         1.41189        -0.09603
C         14.69246         4.28428         0.00204
C         13.47061         6.34135         0.69556
C         13.48329         7.74551         0.85595
C         14.67273         5.63988         0.30663
C         14.73734         8.47938         0.82286
C         13.48761        10.60596         0.96650
C         13.44833        12.03385         0.94636
C         14.72689         9.91677         0.93927
C         14.69166        12.78091         1.10186
C         13.42659        14.86322         0.28789
C         13.45499        16.14021        -0.35868
C         14.67530        14.31320         0.80460
C         14.69466        16.79239        -0.67296
C         13.40317        18.80756        -1.26252
C         14.66361        18.19817        -1.08221
C         15.81893         2.18514        -0.81226
C         15.91481         3.58803        -0.25826
C         17.15143         1.48601        -0.90480
C         17.13227         4.17287         0.01791
C         15.90929         6.41421         0.17205
C         15.93355         7.81755         0.58605
C         17.21458         5.62484         0.12866
C         17.23232         8.55821         0.40026
C         15.98704        10.62032         0.98082
C         15.98466        12.10374         0.69868
C         17.20052         9.96021         0.94486
C         17.25450        12.83094         1.09660
C         15.93704        14.92731         0.40507
C         15.91860        16.06352        -0.40853
C         17.22216        14.33987         0.82659
C         17.21220        16.56277        -0.81092
C         15.76490        19.10937        -1.16584
C         17.11592        18.72620        -1.34831
C         18.33356         2.03752        -0.52856
C         18.37808         3.38121         0.10438
C         19.61318         1.40663        -0.84298
C         19.70132         4.08683         0.29207
C         18.46243         6.27091         0.63942
C         18.46952         7.75714         0.79122
C         19.73046         5.57410         0.32602
C         19.75857         8.44634         0.56308
C         18.49520        10.67473         1.05220
C         18.53398        12.13868         0.90605
C         19.80257         9.89898         0.81715
C         19.72811        12.82863         0.67640
C         18.50389        14.96864         0.45887
C         18.41073        16.24059        -0.21608
C         19.70876        14.27443         0.49316
C         19.61729        17.09953        -0.36511
C         18.29810        19.34575        -1.01987
C         19.56366        18.56414        -0.82518
C         20.80327         2.01676        -0.67536
C         21.01041         3.34019         0.03354
C         22.03007         4.21819        -0.65216
C         20.85255         6.29239        -0.02224
C         20.87297         7.75792         0.11447
C         21.98771         5.56328        -0.58991
C         22.06248         8.52812        -0.17312
C         20.96353        10.67430         0.34696
C         20.93255        12.07541         0.33175
C         22.08932         9.89439        -0.09743
C         22.05221        12.81347        -0.22714
C         21.02016        15.02781         0.30176
C         20.91699        16.39343        -0.37860
C         22.07615        14.15652        -0.32473
C         22.03271        17.07073        -0.77550
C         20.80142        19.08660        -1.42807
C         21.96177        18.38534        -1.36264
O         18.34548         6.90143         1.96632
O          3.82619         5.84577        -2.59318
O          3.90812         8.59467        -1.46012
O         14.65484        13.74817         2.15836
O         19.33117        10.21780         2.17710
O          9.72181         5.68082         2.98910
O          2.02863        13.62947         2.12318
O          5.15834         5.74535         1.62747
O          7.70107         7.62914         2.76260
O          5.69161        14.99252         2.02913
O          4.88278        10.29325         2.55333
O         16.66726         6.24277        -1.08588
O          7.61892        13.93021        -1.04140
O         19.00162         3.47497         1.44014
O         12.93374         3.69094        -1.40626
O         15.98607        11.99715        -0.72110
O          8.76108        11.70893         2.64602
O         17.25373        17.43522        -1.89718
O         17.20638        13.76796         2.18691
O         19.65925        18.21982         0.60696
O         15.32060         2.32695        -2.18018
H         14.47069         2.85115        -2.13107
O          2.67594         6.10866         0.88533
H          3.17171         6.10877         1.73606
O          7.19558         9.93327         3.50422
H          7.61221         9.10240         3.83293
O          5.61087         3.06877         1.65146
H          5.43664         3.93003         2.10423
O         21.50297        15.33238         1.65363
H         21.46451        14.50290         2.17529
O         10.43863         3.32507         2.34505
H          9.99343         4.81586         3.37543
O         21.58580         3.00692         1.32867
H         20.82368         2.82838         1.92693
O         13.09630         3.83404         2.25321
H         12.41172         3.82272         2.95867
O          6.68672         8.25943        -0.62920
H          5.92703         8.31116        -1.25608
O         17.41293         8.80282        -1.03582
H         16.70508         9.41627        -1.33555
H          1.49929         2.17626        -3.76311
H          1.46058         4.61505        -3.37440
H          3.28753         0.75069        -2.77672
H          0.83897         6.25701        -2.19124
H          0.58168         8.54173        -1.37406
H          0.39422        10.30851        -0.53107
H          0.10530        12.38018         0.83287
H          0.20006        15.38334         1.98808
H          0.36051        17.62680         0.85314
H          1.57542        19.21458        -0.40262
H          5.39449         0.51362        -1.56847
H          3.70163        20.06346        -1.38298
H          7.57814         0.33465        -0.54597
H          6.07929        19.86629        -1.65239
H          9.85070         0.23746         0.03886
H          8.50763        19.78772        -1.79699
H         12.29697         0.21538         0.00926
H         10.96183        19.80768        -1.73888
H         14.88465         0.34579         0.14608
H         13.37195        19.86805        -1.55388
H         17.15862         0.51314        -1.42173
H         15.52571        20.18151        -1.08894
H         19.57462         0.40973        -1.30974
H         18.29331        20.37434        -0.62823
H         21.72111         1.48240        -0.96615
H         22.89743         3.71991        -1.11085
H         22.80636         6.14177        -1.04103
H         22.97606         8.00596        -0.48672
H         23.02668        10.40237        -0.36046
H         22.90025        12.24796        -0.63646
H         22.95612        14.63824        -0.77428
H         23.02546        16.60476        -0.70528
H         20.75812        20.04654        -1.96320
H         22.87985        18.80603        -1.79771
