         349
 CSIRO Nanostructure Databank - Neutral Graphene Oxide Data Set
C          1.16384         2.03791        -0.60317
C          1.12302         3.42946        -0.44621
C          2.35102         1.33967        -0.43700
C          2.27036         4.15482        -0.07282
C          1.09037         6.37098        -0.29535
C          1.09300         7.76423        -0.28827
C          2.24722         5.62983         0.01492
C          2.26795         8.50019        -0.05337
C          1.05554        10.71615        -0.13051
C          1.05302        12.09848        -0.20001
C          2.26687         9.97526        -0.08484
C          2.26059        12.83837        -0.24139
C          1.14999        15.07807        -0.00937
C          1.23552        16.45447         0.12942
C          2.30115        14.29037        -0.25692
C          2.48364        17.11437         0.03607
C          2.61384        18.54476         0.32323
C          3.53495         2.02573        -0.06444
C          3.46677         3.43111         0.16424
C          4.78538         1.32661        -0.03074
C          4.66048         4.11411         0.68763
C          3.41913         6.35476         0.34393
C          3.46179         7.77208         0.22201
C          4.62288         5.61728         0.78435
C          4.72977         8.48513         0.31476
C          3.47473        10.69137        -0.08001
C          3.48478        12.11542        -0.18551
C          4.78077         9.93594        -0.14561
C          4.72768        12.84068        -0.33400
C          3.54857        14.96037        -0.45133
C          3.62724        16.36654        -0.28031
C          4.75785        14.19282        -0.62279
C          4.97790        17.05146        -0.19310
C          3.75197        19.21739         0.05861
C          4.86839        18.51371        -0.67493
C          6.00844         1.97142         0.17219
C          5.99932         3.37632         0.64415
C          7.25599         1.32878         0.01168
C          7.26172         4.14351         0.50020
C          5.92748         6.36277         0.80841
C          5.90764         7.81443         0.52369
C          7.18104         5.62830         0.43460
C          7.19342         8.51827         0.75921
C          5.91475        10.73224         0.47923
C          5.95816        12.18467         0.16198
C          7.19550        10.01521         0.78039
C          7.27761        12.86954         0.01056
C          6.00236        14.83017        -1.23554
C          6.02655        16.34219        -1.02371
C          7.33690        14.19684        -0.71148
C          6.97841        17.12143        -1.58815
C          6.21910        19.20043        -0.65625
C          7.28070        18.50257        -1.19365
C          8.47853         2.04357         0.08292
C          8.43404         3.49939         0.19801
C          9.71893         1.39346        -0.01287
C          9.68322         4.26558        -0.21171
C          8.46082         6.40286         0.31086
C          8.47814         7.83653         0.61692
C          9.76676         5.64110         0.46299
C          9.70034         8.52844         0.82199
C          8.48452        10.70914         0.59308
C          8.49165        12.03094         0.15379
C          9.67394         9.97591         0.91733
C          9.76351        12.77173         0.11681
C          8.66359        14.51228        -1.47157
C          8.87430        15.98582        -1.73262
C          9.91250        13.93042        -0.80802
C          9.89876        16.79571        -1.29905
C          8.63245        19.00153        -1.26984
C          9.84073        18.26725        -1.32885
C         10.97088         2.09284         0.03636
C         10.97714         3.52210         0.01381
C         12.19912         1.39935         0.03390
C         12.18017         4.23596         0.06348
C         10.90359         6.52916        -0.10203
C         10.93708         7.81592         0.71202
C         12.25746         5.73683        -0.24083
C         12.20219         8.40208         1.26947
C         10.93273        10.70402         1.07164
C         10.99397        12.13322         0.64489
C         12.21719         9.93552         1.16197
C         12.32171        12.75002         0.42461
C         11.17362        14.71437        -0.68223
C         11.15867        16.16813        -0.93413
C         12.36765        14.15742         0.02135
C         12.33666        16.86681        -0.89262
C         11.07609        18.96062        -1.21734
C         12.33098        18.31166        -1.04047
C         13.42965         2.09347         0.07985
C         13.39847         3.51957         0.16035
C         14.67919         1.39810        -0.09002
C         14.66096         4.24014         0.36431
C         13.45704         6.41450         0.40924
C         13.48459         7.77478         0.76527
C         14.67575         5.71920         0.34828
C         14.71168         8.44546         0.95681
C         13.47844        10.56841         0.64431
C         13.46090        12.06705         0.71776
C         14.68744         9.88814         1.44133
C         14.70363        12.86334         1.01993
C         13.56249        14.78807        -0.14841
C         13.63985        16.10367        -0.88946
C         14.84968        13.99155        -0.00683
C         14.82650        16.93134        -0.48696
C         13.55010        19.00018        -0.94121
C         14.79544        18.32648        -0.66015
C         15.91186         2.05347        -0.15652
C         15.96364         3.48260         0.21503
C         17.13895         1.42960        -0.49534
C         17.17746         4.25145        -0.11456
C         15.89772         6.41273         0.39835
C         15.93585         7.79991         0.67218
C         17.10060         5.72371        -0.11133
C         17.21381         8.51997         0.68545
C         15.97231        10.66437         1.16210
C         15.95824        12.03028         1.07727
C         17.23684         9.94869         1.04421
C         17.18834        12.82596         1.21659
C         16.07608        14.83458         0.25615
C         16.14596        16.21899        -0.35751
C         17.18284        14.23934         0.76086
C         17.23302        17.09528         0.20755
C         16.02051        19.06016        -0.60341
C         17.24847        18.45064        -0.22040
C         18.34989         2.15450        -0.60938
C         18.32191         3.61036        -0.51420
C         19.58785         1.48968        -0.75506
C         19.54459         4.39900        -0.80384
C         18.37868         6.52541        -0.21925
C         18.37588         7.91091         0.27050
C         19.62945         5.79900        -0.40813
C         19.64351         8.71586         0.03566
C         18.43990        10.62000         1.10896
C         18.50402        12.07125         1.32393
C         19.73139         9.83849         1.05760
C         19.77704        12.77883         1.05855
C         18.43846        14.99926         1.02277
C         18.42114        16.49597         0.82445
C         19.73121        14.25246         0.72328
C         19.69875        17.35046         0.90847
C         18.49464        19.14241        -0.34181
C         19.73242        18.52782        -0.04739
C         20.83284         2.16361        -0.78071
C         20.86044         3.63590        -0.96131
C         22.04121         1.47830        -0.62777
C         22.12752         4.36644        -0.71335
C         20.87485         6.58416        -0.72858
C         20.92539         7.91217        -0.00763
C         22.14012         5.77735        -0.56680
C         22.13451         8.55265         0.23587
C         21.00050        10.64991         0.88537
C         20.97383        12.10434         0.95951
C         22.16697         9.95320         0.67857
C         22.24588        12.84312         0.85475
C         20.98986        14.98295         1.13973
C         20.97818        16.49365         0.97906
C         22.25235        14.24141         0.95704
C         22.24071        17.04087         0.39491
C         20.94370        19.14077        -0.34570
C         22.23199        18.44516        -0.21560
C         23.29608         2.16239        -0.59559
C         23.30578         3.60031        -0.63722
C         24.51529         1.45961        -0.52653
C         24.59760         4.28328        -0.70734
C         23.35323         6.50449        -0.39643
C         23.37152         7.87611        -0.08762
C         24.62641         5.80023        -0.64011
C         24.63226         8.67234        -0.37330
C         23.48514        10.60272         1.03537
C         23.47483        12.11237         0.83516
C         24.67994         9.98120         0.36809
C         24.69705        12.84447         0.76804
C         23.51746        14.99672         1.30964
C         23.53021        16.43519         0.79512
C         24.73640        14.22925         0.86188
C         24.69467        17.12012         0.60884
C         23.50402        19.14320        -0.23502
C         24.71308        18.50890         0.11869
C         25.77562         2.12363        -0.41309
C         25.80733         3.52766        -0.40868
C         27.01564         1.38063        -0.36906
C         27.07181         4.22694        -0.00180
C         25.90180         6.47525        -0.29279
C         25.91685         7.86706        -0.16833
C         27.10690         5.72681        -0.21913
C         27.16911         8.52784        -0.04114
C         25.96342        10.61986         0.53467
C         26.00101        12.13145         0.74803
C         27.20632         9.94959         0.10639
C         27.19481        12.86643         0.28267
C         26.02437        14.94121         0.85083
C         26.00258        16.44914         0.84309
C         27.22395        14.25216         0.32549
C         27.23287        17.15395         0.42938
C         25.91982        19.22225         0.11197
C         27.19324        18.64621         0.66414
C         28.24526         2.02213        -0.52225
C         28.25789         3.50139        -0.59621
C         29.49483         1.35327        -0.62554
C         29.57085         4.21647        -0.58916
C         28.33852         6.39337        -0.15788
C         28.39452         7.81083        -0.11748
C         29.60035         5.61992        -0.08541
C         29.65486         8.52162        -0.16401
C         28.39699        10.64350        -0.04792
C         28.33957        12.11233        -0.22153
C         29.64587         9.95103        -0.21071
C         29.65072        12.88991        -0.42732
C         28.40403        15.01099        -0.00588
C         28.35696        16.46838         0.05451
C         29.62857        14.34803        -0.22086
C         29.54922        17.22872        -0.38913
C         28.40644        19.36494         0.16019
C         29.55629        18.70170        -0.22021
C         30.71846         2.03505        -0.68140
C         30.81493         3.43350        -0.60417
C         32.04537         4.16814        -0.64300
C         30.92717         6.33774        -0.12174
C         30.89636         7.82148        -0.23055
C         32.10042         5.53219        -0.52797
C         32.07934         8.55302        -0.38532
C         30.87676        10.67863        -0.31556
C         30.90516        12.13881        -0.27703
C         32.07146         9.94781        -0.42472
C         32.06108        12.87378        -0.07030
C         30.89075        15.03215        -0.23370
C         30.89189        16.49946        -0.47584
C         32.06104        14.29205        -0.12750
C         32.09273        17.32377        -0.35142
C         30.78453        19.38901        -0.43608
C         32.01097        18.70159        -0.44184
O         14.36950         9.93006         2.78513
O          7.42535        14.18077         0.71982
O          7.12977         9.29001         2.04242
O         22.17570        17.17964        -1.04968
O          5.24167         3.51602         1.88876
O          5.23688         6.05082         2.04722
O          7.86830        16.54628        -2.52414
O          7.65992         6.09925        -0.88959
O         18.27568        15.84436         2.17772
O         21.05366        15.87909         2.29326
O         26.19980        15.72743         2.10205
O         26.18458        11.25967         1.90795
O          5.62207        11.68515         1.52633
O         24.70863         5.14188        -1.94245
O         15.41258         3.74929         1.54765
O         11.69075        10.53539         2.35185
O         10.21233        13.05673         1.49662
O         10.93887        13.80013        -1.86028
O         20.14890         4.11503        -2.14841
O         28.77064         4.07636        -1.82789
O         30.07966        16.81002        -1.67717
O         17.83501        12.60636         2.52122
O         30.34002         5.82616         1.14914
O         17.49003         6.29761        -1.41595
O         28.80317        12.48728        -1.55814
O         13.87952        15.72148        -2.31893
H         13.09302        15.20704        -2.61015
O         10.00618         5.39632         1.85629
H         10.25201         6.23872         2.29926
O          5.88933        14.54412        -2.64018
H          6.65389        14.96750        -3.09545
O         24.59054         8.98803        -1.81346
H         24.51012         8.14072        -2.30312
O         23.58618        15.09847         2.76745
H         23.51145        14.19213         3.13334
O          5.15773         9.86787        -1.56419
H          4.41936         9.44852        -2.05477
O          8.51191        13.84160        -2.74573
H          9.41576        13.75365        -3.12781
O         27.18722        18.82964         2.13106
H         26.63976        18.11642         2.52614
O         15.04214        13.33840        -1.29668
H         15.15588        14.05291        -1.96578
O          4.46519        18.43203        -2.07693
H          4.31035        19.34361        -2.40034
O         12.61929         5.74749        -1.65051
H         12.07603         6.45912        -2.07350
O         13.62592        10.23106        -0.74780
H         14.26902        10.85177        -1.15493
O         23.64139        10.36179         2.48621
H         24.54220        10.69568         2.72194
O         14.50990        13.47719         2.31304
H         14.44193        12.75833         2.97868
O         19.85484         9.17715         2.35080
H         19.86508         9.86678         3.04765
O         19.63686        18.03330         2.18683
H         19.52918        17.33088         2.87032
O         19.76413        14.29978        -0.74665
H         20.51524        13.75175        -1.06070
O         27.20624         4.03661         1.44888
H         26.46557         4.49958         1.89339
O         20.74185         6.90306        -2.18251
H         20.58457         6.03542        -2.63222
O         10.48564         6.96848        -1.42123
H          9.95516         6.23801        -1.82838
O          9.58164         4.47078        -1.65470
H          9.64541         3.59441        -2.08932
O         16.58909        15.97701        -1.76756
H         15.79993        16.10280        -2.34687
O         12.22082         8.10558         2.69716
H         12.92634         8.70681         3.07471
O         19.51552         9.30064        -1.28848
H         19.71362         8.58476        -1.94060
O          5.38531        17.06202         1.19433
H          5.53546        16.13678         1.48279
H          0.24692         1.50108        -0.88340
H          0.16800         3.94543        -0.60965
H          2.38554         0.25305        -0.59895
H          0.15039         5.85697        -0.53508
H          0.15282         8.28489        -0.51388
H          0.09103        10.19131        -0.10593
H          0.08786        12.62208        -0.24027
H          0.17454        14.59081         0.12661
H          0.33213        17.03814         0.35847
H          1.75257        19.05751         0.77833
H          4.78453         0.25686        -0.29000
H          3.83588        20.29372         0.27511
H          7.28002         0.25026        -0.20617
H          6.33755        20.22173        -0.26338
H          9.73750         0.29543        -0.08266
H          8.74394        20.08854        -1.11994
H         12.19780         0.30063        -0.01740
H         11.05917        20.06152        -1.23760
H         14.64088         0.31412        -0.27802
H         13.56414        20.09365        -1.06093
H         17.15783         0.34120        -0.65784
H         16.01415        20.12974        -0.85905
H         19.59498         0.38940        -0.73058
H         18.49596        20.12129        -0.84552
H         22.02931         0.38368        -0.52161
H         20.94058        20.13083        -0.82783
H         24.49504         0.35970        -0.53761
H         23.50388        20.22976        -0.40507
H         26.97267         0.28220        -0.32356
H         25.92368        20.25356        -0.27153
H         29.50184         0.25327        -0.63311
H         28.42419        20.46125         0.25949
H         31.64607         1.44634        -0.74200
H         32.97412         3.61043        -0.83806
H         33.06684         6.03755        -0.66722
H         33.04290         8.03045        -0.45462
H         33.02877        10.47410        -0.53693
H         33.02448        12.36667         0.07688
H         33.03091        14.80709        -0.09130
H         33.06909        16.84466        -0.19465
H         30.78386        20.48837        -0.42795
H         32.94025        19.28953        -0.44144
