         638
 CSIRO Nanostructure Databank - Neutral Graphene Oxide Data Set
C         23.22681        69.99209        -0.33158
C         23.21681        71.34075        -0.21915
C         22.17778        72.05453         0.51307
C         23.03262        74.26896        -0.28531
C         22.08199        73.39849         0.49498
C         25.59942        65.70422        -0.80801
C         25.56855        67.13360        -0.91639
C         24.37850        67.82674        -0.88620
C         25.61238        70.01072        -1.01433
C         24.28407        69.29967        -1.16141
C         25.60869        71.41852        -0.86859
C         24.28347        72.14796        -0.95142
C         25.53787        74.21699        -0.27894
C         24.36009        73.57589        -0.46622
C         27.97614        61.40869        -0.80603
C         27.94685        62.79747        -0.97477
C         26.77948        63.56312        -0.82898
C         28.04872        65.69720        -1.15015
C         26.78342        64.98243        -0.93037
C         28.02881        67.15111        -1.20656
C         26.83884        67.84124        -1.08021
C         28.05488        69.99954        -0.89002
C         26.81782        69.29494        -1.03497
C         28.04517        71.40145        -0.65759
C         26.80972        72.11421        -0.65906
C         28.01571        74.21589        -0.26433
C         26.81840        73.54351        -0.41263
C         30.45104        57.06170        -0.80287
C         30.37446        58.46922        -0.61638
C         29.20592        59.22277        -0.75277
C         30.42410        61.36428        -0.70332
C         29.20962        60.66132        -0.75187
C         30.42804        62.87246        -0.67612
C         29.21969        63.48255        -1.42251
C         30.52634        65.68362        -1.58012
C         29.21970        64.99028        -1.27242
C         30.56953        67.15756        -1.25821
C         29.29730        67.91466        -1.55913
C         30.49157        69.98201        -0.74075
C         29.29453        69.31673        -1.00580
C         30.47128        71.35137        -0.37199
C         29.27250        72.07863        -0.40836
C         30.48741        74.21116        -0.19383
C         29.27968        73.53057        -0.27196
C         32.89599        52.80731        -0.52100
C         32.89139        54.19492        -0.65509
C         31.69815        54.94029        -0.74261
C         32.92611        57.08986        -0.56847
C         31.67007        56.35759        -0.74134
C         32.89528        58.44076        -0.30829
C         31.61984        59.15331        -0.22200
C         32.97027        61.33043        -0.51608
C         31.65757        60.68169        -0.32544
C         33.02303        62.70506        -1.02686
C         31.70928        63.50999        -1.16883
C         33.06313        65.62852        -1.40081
C         31.75503        64.95002        -1.09719
C         33.03434        67.09753        -1.02079
C         31.76035        67.81010        -1.09731
C         33.00812        69.93418        -0.45715
C         31.79981        69.32832        -1.13177
C         32.99364        71.31922        -0.06182
C         31.68503        72.02095         0.21035
C         32.91645        74.16324         0.22384
C         31.73574        73.51763        -0.00900
C         35.33097        48.51611        -0.27720
C         35.31451        49.92176        -0.18674
C         34.10950        50.66752        -0.35271
C         35.36088        52.77815        -0.19576
C         34.11052        52.06349        -0.37603
C         35.40414        54.17905        -0.29239
C         34.20873        54.90106        -0.86483
C         35.37572        57.02132        -0.29575
C         34.18636        56.36094        -0.50835
C         35.37589        58.51896        -0.45199
C         34.13670        59.18221         0.14710
C         35.40889        61.32648        -0.30508
C         34.14324        60.65351        -0.24224
C         35.44477        62.73745        -0.49989
C         34.26552        63.45382        -0.84598
C         35.45065        65.55826        -0.59827
C         34.27362        64.87016        -0.89516
C         35.37684        66.98637        -0.14483
C         34.17994        67.75857        -0.64711
C         35.41352        69.81109         0.05588
C         34.18587        69.18791        -0.35067
C         35.40768        71.21851         0.59073
C         34.14380        71.97126         0.30102
C         35.41218        74.11697         0.46907
C         34.11545        73.41279         0.74851
C         37.74999        44.18691        -0.20239
C         37.73256        45.60259        -0.21300
C         36.55987        46.35693        -0.30366
C         37.75268        48.50489         0.02814
C         36.54467        47.78818        -0.20544
C         37.75458        49.90512         0.24451
C         36.53623        50.63005         0.07469
C         37.77769        52.74810         0.33345
C         36.55621        52.04995         0.09084
C         37.80418        54.17167         0.30108
C         36.60576        54.88554        -0.03613
C         37.81958        57.02692         0.17086
C         36.62514        56.32269        -0.08654
C         37.83650        58.47963         0.19125
C         36.64344        59.19862        -0.02536
C         37.87250        61.31371        -0.00961
C         36.63222        60.60925        -0.07561
C         37.88893        62.70363        -0.26536
C         36.69469        63.43326        -0.46451
C         37.90004        65.60334        -0.35415
C         36.69253        64.86893        -0.49587
C         37.90559        67.01743        -0.18320
C         36.67972        67.73413        -0.19626
C         37.89473        69.83447         0.48143
C         36.63605        69.12443         0.03227
C         37.87268        71.32279         0.21013
C         36.66654        71.99613         0.27836
C         37.85614        74.15203         0.16362
C         36.62403        73.44356         0.27758
C         40.21884        39.90367        -0.22205
C         40.17671        41.29390        -0.16614
C         38.97736        42.04158        -0.15870
C         40.18955        44.17987         0.17030
C         38.95871        43.46216        -0.10897
C         40.24207        45.56327         0.22917
C         39.03586        46.30335        -0.18764
C         40.24681        48.47096         0.46586
C         39.03924        47.81108        -0.04851
C         40.20346        49.86403         0.73314
C         38.96752        50.59651         0.55388
C         40.16490        52.72951         0.95435
C         38.97503        52.01980         0.62519
C         40.19628        54.13632         0.92529
C         39.01679        54.87292         0.56602
C         40.21998        57.01907         0.73641
C         39.03301        56.31227         0.47829
C         40.28977        58.45885         0.63663
C         39.05452        59.19161         0.40481
C         40.32960        61.32710         0.33531
C         39.08932        60.60358         0.25160
C         40.40102        62.67636         0.00970
C         39.18051        63.36693        -0.42738
C         40.42055        65.59840        -0.15425
C         39.17497        64.89735        -0.47184
C         40.38200        66.99703        -0.10942
C         39.16007        67.72246        -0.10712
C         40.34862        69.88351        -0.00752
C         39.16340        69.15214         0.02797
C         40.34922        71.33788         0.10910
C         39.10624        72.04037         0.13956
C         40.33854        74.17469         0.13632
C         39.09686        73.47704         0.12757
C         42.69923        35.79098        -1.17527
C         42.74094        36.99449        -0.28238
C         41.47941        37.80578        -0.36265
C         42.71342        39.91557        -0.01642
C         41.45849        39.17131        -0.20548
C         42.71299        41.27972         0.03088
C         41.46858        42.06288        -0.28889
C         42.68430        44.12517         0.73529
C         41.40426        43.38993         0.43562
C         42.66641        45.59720         0.77093
C         41.45284        46.28645         0.54250
C         42.64360        48.42230         0.94461
C         41.43738        47.72699         0.63701
C         42.61211        49.83601         1.14924
C         41.38702        50.53769         1.10736
C         42.65156        52.70441         1.49281
C         41.32743        51.97452         1.55028
C         42.62277        54.15277         1.54982
C         41.41776        54.83157         1.28035
C         42.73510        57.02338         1.25993
C         41.38837        56.29631         1.26644
C         42.79727        58.37382         0.58392
C         41.50373        59.13431         0.71456
C         42.85022        61.21716         0.21261
C         41.57267        60.63427         0.84591
C         42.86219        62.73288         0.31973
C         41.63251        63.43001         0.10727
C         42.85800        65.56373         0.27743
C         41.63480        64.85037         0.02766
C         42.87060        66.98815         0.26286
C         41.67847        67.72309        -0.29653
C         42.77838        69.87458         0.24125
C         41.61800        69.19284         0.00956
C         42.86094        71.33821        -0.07375
C         41.55382        72.05439         0.12754
C         42.82591        74.17476         0.22979
C         41.56681        73.48664         0.15988
C         45.00989        33.45778        -2.95174
C         43.83730        34.00813        -2.44072
C         45.12147        35.94155        -1.60735
C         43.85926        35.25189        -1.73633
C         45.16745        37.23456        -0.99535
C         43.97877        37.82934        -0.49216
C         45.20514        39.88309        -0.00757
C         43.98515        39.18745        -0.11430
C         45.16905        41.27204         0.57711
C         44.01424        42.05078        -0.03267
C         45.15542        44.13260         0.74461
C         43.97596        43.45615         0.52803
C         45.14511        45.56283         1.02429
C         43.89392        46.28251         0.96969
C         45.07713        48.43738         1.27102
C         43.87619        47.71341         1.07474
C         45.06441        49.83953         1.29696
C         43.84263        50.54917         1.32448
C         45.09917        52.64632         1.94659
C         43.83721        51.97935         1.51555
C         45.10723        54.14383         2.02660
C         43.88070        54.88235         1.63014
C         45.25235        56.91433         0.95926
C         43.95729        56.22627         1.33620
C         45.21577        58.41506         1.21263
C         44.03492        59.12820         1.00509
C         45.21552        61.26783         1.06018
C         44.06880        60.56433         0.82913
C         45.35600        62.67799         0.55090
C         44.04651        63.42831         0.53461
C         45.26006        65.58400         0.86494
C         44.05700        64.85910         0.56981
C         45.23842        67.00188         0.92930
C         44.02169        67.68259         0.61763
C         45.19770        69.92101         1.06151
C         43.95710        69.15070         0.75178
C         45.22488        71.37807         0.79254
C         44.07001        72.05815         0.46465
C         45.28437        74.19329         0.56921
C         44.05078        73.50425         0.40815
C         46.23328        34.11678        -2.82123
C         47.52703        36.09992        -2.09454
C         46.30880        35.38062        -2.16768
C         47.58558        37.38818        -1.51616
C         46.38924        37.96561        -0.97557
C         47.65829        39.97756        -0.29260
C         46.42779        39.27058        -0.39242
C         47.71384        41.20766         0.59583
C         46.46228        42.04875         0.47089
C         47.66258        44.16094         0.88338
C         46.43615        43.41194         0.67817
C         47.59594        45.52531         1.22639
C         46.35824        46.23918         1.24673
C         47.58506        48.47339         1.21008
C         46.34397        47.70908         1.64095
C         47.58961        49.84444         1.07479
C         46.30736        50.65432         1.00795
C         47.65212        52.70065         1.68119
C         46.41191        51.86172         1.97860
C         47.64947        54.06187         1.82236
C         46.42990        54.89465         2.18775
C         47.67015        56.96725         1.54871
C         46.48460        56.25971         1.52526
C         47.67007        58.42608         1.47352
C         46.43849        59.10825         1.42802
C         47.69206        61.29147         1.53032
C         46.37727        60.58367         1.72611
C         47.68706        62.72855         1.46383
C         46.50934        63.44344         1.15748
C         47.63920        65.62071         1.48721
C         46.47898        64.87200         1.15942
C         47.65601        67.03931         1.44610
C         46.44343        67.75288         1.20733
C         47.65121        69.91667         1.37069
C         46.46315        69.17587         1.19194
C         47.63023        71.35849         1.32355
C         46.46833        72.06929         1.01596
C         47.73554        74.18834         0.84363
C         46.48834        73.51388         0.83285
C         48.77861        38.15374        -1.49410
C         50.00328        40.24363        -0.99890
C         48.82394        39.42985        -0.89248
C         50.06777        41.52761        -0.47079
C         49.04105        42.03062         0.51824
C         50.04447        44.34750         0.28896
C         48.91062        43.53397         0.51915
C         50.18031        45.46538         1.32573
C         48.87191        46.24855         1.45885
C         50.08841        48.38496         0.78934
C         48.86395        47.74806         1.34685
C         50.04316        49.89431         0.58987
C         48.81343        50.59456         0.98227
C         50.11220        52.65451         1.16401
C         48.87060        51.97110         1.30365
C         50.21234        54.06211         1.56163
C         48.92109        54.82187         1.88335
C         50.15478        56.96096         1.58266
C         48.93851        56.28251         1.71633
C         50.16455        58.43321         1.54988
C         48.89456        59.14475         1.61462
C         50.18929        61.28818         1.91387
C         48.88013        60.57555         1.64186
C         50.15271        62.78582         1.70467
C         48.92061        63.44034         1.66503
C         50.19761        65.66485         1.78023
C         48.86386        64.89315         1.82895
C         50.14523        67.10090         1.49759
C         48.89749        67.77590         1.51557
C         50.13273        69.89922         1.45784
C         48.89304        69.19935         1.48398
C         50.14334        71.35859         1.74563
C         48.83121        72.14544         1.80628
C         50.16546        74.19196         1.08256
C         48.93989        73.52732         1.16534
C         51.13329        42.38473        -0.80597
C         52.10011        44.51815        -1.19440
C         51.13663        43.77682        -0.48487
C         52.70478        45.70947         1.44849
C         51.42927        46.32992         1.22863
C         52.58744        48.46017         0.77314
C         51.39420        47.70951         0.95597
C         52.55852        49.87511         0.49239
C         51.31853        50.60670         0.54646
C         52.51885        52.76188         0.49803
C         51.30701        52.00402         0.73339
C         52.53003        54.13972         0.64467
C         51.38880        54.85009         1.17269
C         52.69627        56.97540         1.37142
C         51.37738        56.23146         1.33447
C         52.57147        58.42114         0.87508
C         51.34254        59.13420         1.37017
C         52.64169        61.34780         1.44905
C         51.33481        60.63216         1.15422
C         52.63536        62.75600         1.42852
C         51.38344        63.49919         1.56113
C         52.59773        65.64507         1.15895
C         51.41440        64.90949         1.47733
C         52.58381        67.05759         1.05249
C         51.34507        67.79242         1.22700
C         52.56059        69.95327         0.73218
C         51.32743        69.21646         1.20832
C         52.66425        71.36626         1.22555
C         51.42781        72.09318         1.60552
C         52.63714        74.19763         1.37010
C         51.42344        73.56218         1.36571
C         53.88625        46.42609         1.26199
C         55.04715        48.53861         0.73085
C         53.85501        47.80191         0.90597
C         55.02483        49.91952         0.42632
C         53.75786        50.57788         0.29816
C         54.99776        52.73830        -0.00507
C         53.68471        52.01627        -0.14634
C         54.99236        54.17419        -0.18164
C         53.68095        54.93667         0.17177
C         54.97523        57.03647         0.28614
C         53.81671        56.33257         0.56830
C         55.08552        58.46001         0.63112
C         53.87687        59.11616         1.21068
C         55.20347        61.30215         1.35196
C         53.89834        60.58210         1.51077
C         55.12042        62.77086         1.14037
C         53.83272        63.49038         1.24270
C         55.05938        65.60196         0.90450
C         53.85736        64.91589         1.08556
C         55.07015        67.04459         0.49314
C         53.80839        67.78897         0.85382
C         55.08803        69.89809         0.94774
C         53.84342        69.17800         0.89752
C         55.11286        71.29492         1.11707
C         53.86236        72.00795         1.32116
C         55.15687        74.14597         1.48863
C         53.87173        73.44235         1.81728
C         56.23510        50.65157         0.29846
C         57.45643        52.80331         0.02831
C         56.23705        52.06541         0.12056
C         57.47892        54.21758        -0.09653
C         56.23782        54.92534        -0.11005
C         57.41538        57.04731        -0.22327
C         56.20339        56.33515        -0.08078
C         57.32859        58.52727        -0.42127
C         56.22610        59.16327         0.38938
C         57.45415        61.35846         0.10402
C         56.48094        60.54023         0.96140
C         57.38381        62.71732        -0.01372
C         56.13766        63.48758         0.29070
C         57.54610        65.60234         0.39250
C         56.37344        64.84997         0.96057
C         57.65964        67.03362         0.88475
C         56.33364        67.78127         0.86578
C         57.63569        69.87808         1.17531
C         56.33076        69.14423         0.96231
C         57.57539        71.36943         0.96257
C         56.35783        72.03056         1.11421
C         57.59580        74.28673         1.16379
C         56.30986        73.48788         1.21868
C         58.68343        54.96678        -0.21232
C         59.87443        57.13989        -0.52577
C         58.65773        56.36921        -0.33295
C         59.87949        58.51918        -0.57372
C         58.64433        59.25078        -0.36399
C         59.75319        61.35378        -1.02707
C         58.62787        60.62283        -0.34464
C         59.80013        62.82863        -0.63007
C         58.42891        63.52823        -0.76250
C         59.83833        65.68212        -0.48962
C         58.56256        64.97364        -0.26143
C         59.91423        67.07221        -0.25456
C         58.62629        67.81496        -0.02145
C         59.95091        69.93611         0.24426
C         58.78656        69.23558         0.43725
C         59.98673        71.37485         0.39099
C         58.81305        72.07061         0.70854
C         59.87068        74.22083         0.17328
C         58.79610        73.52530         0.65898
C         61.11075        59.29053        -0.75241
C         62.27430        61.45959        -1.32332
C         61.10123        60.64102        -0.90787
C         62.85612        62.47686        -0.63032
C         60.74174        63.66356        -1.49248
C         62.25840        65.64947        -1.04193
C         61.01057        65.00058        -0.89508
C         62.29878        67.06766        -0.85837
C         61.12703        67.75298        -0.41659
C         62.41484        69.96430        -0.54669
C         61.19544        69.19046        -0.08919
C         62.29850        71.41956        -0.69329
C         61.29405        72.13382         0.18817
C         62.01081        74.21945        -1.01099
C         61.07168        73.55923        -0.26101
C         63.84780        63.45559        -1.22667
C         64.51645        65.69483        -1.93920
C         63.48194        64.94611        -1.42914
C         64.49459        67.13288        -2.00517
C         63.42836        67.82492        -1.33551
C         64.39715        69.97167        -2.04623
C         63.43031        69.23316        -1.31902
C         64.30942        71.39279        -2.12112
C         63.22885        72.09926        -1.45375
C         64.11098        74.22970        -2.30709
C         63.15000        73.54787        -1.58792
C         65.49982        67.85369        -2.65166
C         66.42943        70.01476        -3.42670
C         65.46043        69.27328        -2.71983
C         66.35832        71.41908        -3.49969
C         65.28234        72.11473        -2.84812
C         66.18197        74.24271        -3.66110
C         65.20318        73.54686        -2.94190
C         67.33086        72.17705        -4.21871
C         67.23815        73.55439        -4.29066
O         46.13179        51.14362        -0.28869
O         32.35764        62.89243        -2.34451
O         49.54549        65.33267         3.04911
O         44.85970        53.32771         3.23842
O         54.04363        54.66559        -1.22154
O         50.96884        71.66527         2.95322
O         41.93591        56.96662         2.46875
O         62.28261        69.50310         0.86099
O         53.94834        59.54263         2.60009
O         49.85844        48.92531        -0.53681
O         31.53582        59.98325         0.99035
O         49.60902        42.08199         1.82262
O         48.98187        47.08752         2.66973
O         44.24243        69.58399         2.14773
O         49.79565        54.32462         2.94495
O         61.01007        63.44911        -2.66708
O         55.53307        62.22973         2.44133
O         39.30132        64.08488        -1.70152
O         39.26353        47.15327        -1.36162
O         41.87863        43.43997         1.80227
O         41.88935        67.70828        -1.76909
H         41.75379        66.78488        -2.07468
O         57.92843        67.85636        -1.31829
H         58.53250        68.25003        -1.98288
O         52.37853        70.06290        -0.73452
H         52.56061        69.17770        -1.11866
O         53.38604        51.99140        -1.59077
H         53.45700        52.92801        -1.89819
O         44.31715        42.20332        -1.45408
H         43.48677        42.52534        -1.88504
O         41.68429        60.93210         2.27178
H         40.99703        60.42048         2.74799
O         46.56733        55.21139         3.60431
H         46.11616        54.49010         4.10204
O         48.53858        72.40691         3.20897
H         49.40587        72.40298         3.67992
O         42.84419        60.87337        -1.20617
H         43.64465        61.28598        -1.60107
O         41.02448        51.90682         3.00273
H         41.12438        52.81438         3.36345
O         33.24319        65.58213        -2.88676
H         33.24564        64.61903        -3.11248
O         58.02929        63.61937        -2.15125
H         58.39715        62.82195        -2.61528
O         52.07178        45.81174        -1.41648
H         51.35149        46.26708        -0.92621
O         56.69756        64.61661         2.35459
H         57.21499        65.39431         2.67762
O         31.52752        71.88044         1.68477
H         30.64663        72.24943         1.91356
O         55.49380        63.70733        -0.99347
H         56.20441        63.84909        -1.66770
O         55.09933        67.02128        -0.99465
H         56.04068        67.12341        -1.27830
O         64.94819        63.44519        -0.29276
H         65.60689        64.11797        -0.56392
O         56.91636        58.71696        -1.84004
H         56.14196        58.13370        -1.99815
O         59.40262        61.32055        -2.45035
H         59.15867        60.39705        -2.67779
O         61.91924        72.20294         1.51606
H         62.19734        71.27959         1.73060
O         34.18046        59.08963         1.58791
H         33.31742        59.43496         1.91611
O         45.70369        62.51586        -0.88595
H         45.94262        63.40349        -1.22984
O         57.20397        60.27883         2.19404
H         57.02866        61.04901         2.78543
O         41.58907        42.43711        -1.71574
H         41.33052        41.65471        -2.24857
O         62.74494        62.57731         0.73041
H         63.46388        63.17104         1.04267
O         43.08704        71.36724        -1.54553
H         42.36440        70.84848        -1.96196
O         29.36507        63.18770        -2.83357
H         29.92075        63.90346        -3.23105
O         23.88336        72.21456        -2.35036
H         23.77806        71.27837        -2.66179
O         45.36507        56.76222        -0.49843
H         44.56582        57.20244        -0.89157
O         34.40438        54.87483        -2.32982
H         35.23910        55.35239        -2.52230
O         33.93703        73.35282         2.22953
H         33.06525        72.89648         2.35973
O         57.95898        69.69540         2.61740
H         58.76061        70.23060         2.80620
O         47.63623        40.64197         1.94295
H         48.42359        41.07050         2.40917
O         53.80987        73.38756         3.28225
H         52.98869        72.90407         3.52155
O         23.86447        69.44048        -2.57538
H         24.54011        68.98688        -3.12386
O         58.16088        66.98497         2.24060
H         58.11286        67.90616         2.61467
O         57.40663        75.49670         0.41950
H         57.15334        75.25765        -0.49528
O         60.10336        62.95959         0.76478
H         60.97611        62.54440         0.96156
O         51.09762        60.84326        -0.27136
H         51.66764        60.20099        -0.75896
O         42.95981        58.10455        -0.86190
H         42.92748        58.99667        -1.30029
O         31.94137        69.65732        -2.56005
H         31.14446        69.28748        -3.00975
O         35.42638        71.06580         2.07396
H         35.06691        71.91958         2.44085
O         46.11595        60.68191         3.18613
H         46.72155        60.05408         3.63572
O         42.83350        36.47960         1.10923
H         43.67847        35.98675         1.18316
O         44.92403        41.12345         1.99835
H         45.77933        40.81429         2.39074
O         50.47652        61.08092         3.32566
H         49.84473        61.61640         3.84985
O         29.30952        68.07336        -3.02600
H         29.57093        67.18935        -3.39260
O         53.08347        56.95042         2.76642
H         53.27913        57.86259         3.08126
O         46.36487        47.72261         3.10691
H         47.26390        47.41915         3.38331
O         23.17246        75.54488         0.34236
H         23.47751        75.40548         1.26163
O         46.58356        51.32245         3.30289
H         46.16217        51.94896         3.93366
O         30.34308        63.24488         0.72730
H         29.59175        62.75802         1.12741
O         30.60136        65.63927        -3.08484
H         31.56328        65.80548        -3.30417
O         52.78287        44.40799         1.80266
H         51.88905        44.09370         2.10103
O         37.90156        69.71345         1.94526
H         37.09367        70.18769         2.27054
O         35.10907        66.85488         1.31172
H         35.20871        67.74857         1.70787
O         50.29739        44.75245         2.59895
H         50.10089        45.40195         3.31006
O         52.47689        58.40965        -0.58584
H         51.72068        57.83571        -0.83478
O         35.26588        58.75876        -1.89536
H         36.08921        58.43824        -2.31942
H         22.58959        74.45541        -1.30311
H         25.53554        75.27874         0.01480
H         28.01163        75.30483        -0.10577
H         30.49393        75.31159        -0.19573
H         32.96068        75.26318         0.19426
H         35.41505        75.21740         0.49870
H         37.84116        75.25190         0.18345
H         40.33283        75.27486         0.15193
H         42.81962        75.27546         0.21645
H         45.29990        75.28971         0.47306
H         47.77050        75.24704         0.54237
H         50.17432        75.25079         0.77924
H         52.70108        75.28296         1.19843
H         55.18423        75.24152         1.59851
H         57.83095        74.60711         2.21833
H         59.79398        75.31307         0.05854
H         61.86463        75.28568        -1.24470
H         64.04605        75.32407        -2.40240
H         66.12440        75.33812        -3.73479
H         22.44080        69.38343         0.14230
H         21.44521        71.45327         1.07421
H         21.27247        73.90303         1.04376
H         24.65079        65.16641        -0.65980
H         23.43497        67.26801        -0.78609
H         27.03288        60.86774        -0.63298
H         25.83122        63.05778        -0.58721
H         29.52202        56.50062        -0.98567
H         28.25691        58.70598        -0.95977
H         31.93952        52.26255        -0.49173
H         30.73862        54.39928        -0.74129
H         34.38940        47.97607        -0.45572
H         33.16431        50.12431        -0.50214
H         36.80042        43.63849        -0.29241
H         35.59642        45.83405        -0.40015
H         39.27692        39.33452        -0.24951
H         38.01755        41.50491        -0.20764
H         41.75088        35.23952        -1.26472
H         40.53277        37.26645        -0.52234
H         44.97044        32.49082        -3.47325
H         42.88142        33.47779        -2.55629
H         47.14698        33.67540        -3.24376
H         48.43820        35.66024        -2.52671
H         49.69094        37.74440        -1.95212
H         50.82916        39.87775        -1.63018
H         51.92055        42.01046        -1.48142
H         52.90957        43.99020        -1.73421
H         54.85133        45.92466         1.41075
H         56.01455        48.03022         0.85217
H         57.19344        50.12079         0.38980
H         58.40844        52.25373         0.05765
H         59.64651        54.43582        -0.23541
H         60.82277        56.59019        -0.62482
H         62.06176        58.73668        -0.77342
H         62.46950        61.44138        -2.40978
H         64.19807        63.05555        -2.22052
H         65.42407        65.18718        -2.30600
H         66.32091        67.31573        -3.14853
H         67.24652        69.48606        -3.93958
H         68.15701        71.64907        -4.71618
H         67.99467        74.12487        -4.84769
