         324
 CSIRO Nanostructure Databank - Neutral Graphene Oxide Data Set
C          1.16018         3.45217         0.86147
C          0.04039         3.74994         0.11376
C          1.24729         5.59722        -0.88962
C          0.10493         4.80341        -0.81735
C          1.26312         7.83898        -1.52609
C          0.08636         8.53012        -1.83064
C          1.18155        10.60869        -1.26789
C          0.01977         9.90305        -1.63161
C          1.16110        12.06591        -1.29474
C          0.00207        12.81241        -1.29911
C          1.18169        14.97882        -1.47324
C          0.00723        14.22761        -1.40651
C          1.17844        16.42425        -1.47296
C          0.00292        17.15784        -1.26029
C          1.17711        19.27332        -0.79528
C         -0.00304        18.51997        -0.95059
C          1.18318        20.59321        -0.27145
C         -0.04127        21.27929         0.05156
C          1.19095        23.27862         0.77932
C         -0.05767        22.54698         0.54373
C          1.19516        24.78892         1.04192
C         -0.04802        25.59334         1.07559
C          1.24136        27.67008         0.58616
C         -0.02527        26.92676         0.93346
C          1.22208        29.11700         0.99536
C          3.54263         3.71172         1.28907
C          2.35517         4.22297         0.73524
C          3.56361         6.28660        -0.04977
C          2.38380         5.42270        -0.06165
C          3.58233         7.71084        -0.47247
C          2.41045         8.45880        -0.96837
C          3.60102        10.64882        -0.73010
C          2.38455         9.88979        -0.97893
C          3.60563        12.03193        -0.83830
C          2.47220        12.75989        -1.52126
C          3.63244        14.96484        -1.31997
C          2.45265        14.27452        -1.36846
C          3.73418        16.37694        -1.86155
C          2.43592        17.17879        -1.66700
C          3.70798        19.34749        -0.90846
C          2.44215        18.66983        -1.27088
C          3.69573        20.63147        -0.39171
C          2.42564        21.31454        -0.12161
C          3.67409        23.46079         0.10830
C          2.43295        22.63164         0.31901
C          3.67591        24.81497         0.77012
C          2.47629        25.52291         0.89971
C          3.65756        27.60462         1.41447
C          2.48560        26.94027         1.05133
C          3.62731        29.10616         1.77083
C          2.30773        29.75979         1.43259
C          5.98381         3.75086         1.41027
C          4.76075         4.36824         1.04643
C          6.00128         6.42613         0.60517
C          4.72805         5.69666         0.48461
C          6.01508         7.86277         0.19848
C          4.75868         8.46516        -0.30825
C          6.06737        10.54673        -0.49023
C          4.81927         9.88919        -0.49929
C          6.10120        12.02688        -0.38918
C          4.82512        12.80813        -0.53778
C          6.17810        14.94629        -1.15888
C          4.86843        14.27093        -0.88488
C          6.23241        16.42003        -1.08884
C          5.01310        17.16020        -1.47660
C          6.21709        19.23482        -0.54732
C          4.99095        18.64548        -1.11805
C          6.18059        20.59282        -0.13484
C          4.94368        21.31314        -0.07417
C          6.15386        23.36624         0.56153
C          4.95089        22.68075         0.28129
C          6.15283        24.77809         0.90258
C          4.89665        25.48345         1.00101
C          6.12529        27.40639         1.81865
C          4.87154        26.83496         1.47545
C          6.06938        29.55279         1.47091
C          4.78038        29.85786         1.10387
C          8.46308         3.67639         1.42516
C          7.24798         4.34600         1.15181
C          8.50678         6.32684         0.37482
C          7.27840         5.69007         0.67145
C          8.52839         7.72044        -0.05885
C          7.31631         8.46616        -0.15381
C          8.58863        10.50211        -0.74622
C          7.30143         9.83211        -0.47933
C          8.64142        12.00637        -0.84568
C          7.38830        12.75013        -0.54669
C          8.66713        14.91344        -0.53395
C          7.44247        14.18945        -0.93682
C          8.61938        16.29373        -0.42558
C          7.41649        17.05989        -0.74832
C          8.64866        19.18170        -0.24993
C          7.43390        18.50589        -0.53840
C          8.64427        20.58972         0.00462
C          7.40340        21.27670         0.12881
C          8.63724        23.33140         0.62421
C          7.39980        22.66241         0.45260
C          8.63045        24.71352         1.11926
C          7.35923        25.45345         1.13360
C          8.55097        27.68068         1.37504
C          7.37249        26.85538         1.45049
C          8.52256        29.10622         1.13173
C          7.34436        29.89490         0.94813
C         10.93984         3.65098         1.47014
C          9.70325         4.30285         1.17314
C         11.01044         6.17486         0.19503
C          9.71444         5.60654         0.58588
C         11.04750         7.65162        -0.23836
C          9.77428         8.38720        -0.25113
C         11.06734        10.47950        -0.37367
C          9.83403         9.77639        -0.45486
C         11.03926        11.93753        -0.17393
C          9.86338        12.73033        -0.48870
C         11.12169        14.80153        -0.11554
C          9.86934        14.12492        -0.29224
C         11.11280        16.21744         0.23678
C          9.79149        16.99767         0.12835
C         11.09587        19.12284         0.04444
C          9.89226        18.46489        -0.04839
C         11.09189        20.56877        -0.42521
C          9.87257        21.29962         0.09732
C         11.11449        23.45055         0.36870
C          9.87101        22.67812         0.39490
C         11.13210        24.84965         0.62104
C          9.92455        25.48870         1.19946
C         11.11685        27.76091         1.04711
C          9.86409        26.98863         1.35627
C         11.00952        29.21142         0.77263
C          9.74974        29.80220         0.84714
C         13.40914         3.64252         1.64314
C         12.18771         4.28328         1.30165
C         13.46608         6.29409         0.61311
C         12.25075         5.59529         0.71831
C         13.49522         7.66031         0.15996
C         12.32432         8.37555        -0.11305
C         13.54049        10.55863        -0.26757
C         12.30598         9.81233        -0.21834
C         13.59141        11.93909        -0.37293
C         12.38925        12.70220        -0.10900
C         13.59008        14.87909        -0.38219
C         12.36303        14.15786        -0.27358
C         13.54106        16.31618        -0.18887
C         12.37382        16.95784         0.16269
C         13.63190        19.15960         0.59223
C         12.29723        18.38810         0.64751
C         13.57617        20.65327         0.51512
C         12.44982        21.32099        -0.29632
C         13.49416        23.54139        -0.13637
C         12.31983        22.79556         0.04146
C         13.47054        24.94439        -0.09124
C         12.29423        25.61552         0.33601
C         13.43689        27.81888         0.28742
C         12.31313        27.06026         0.52567
C         13.44258        29.27566         0.35740
C         12.19684        29.93284         0.50394
C         15.85497         3.61532         1.83940
C         14.64223         4.30408         1.53398
C         15.89103         6.41577         1.17200
C         14.68716         5.68183         1.08701
C         15.99905         7.74900         0.68241
C         14.80252         8.33820         0.04599
C         16.03729        10.59727         0.09847
C         14.81470         9.81732        -0.25010
C         16.08391        12.05638        -0.24627
C         14.83126        12.67879        -0.83609
C         16.07543        14.82241        -0.60990
C         14.82880        14.17625        -0.56269
C         16.06070        16.31076        -0.64341
C         14.78760        17.08471        -0.38793
C         16.04750        19.19072        -0.04027
C         14.88779        18.48952         0.11529
C         16.16016        20.61747         0.45785
C         14.86353        21.41746         0.37415
C         16.02034        23.50668        -0.62474
C         14.80641        22.83679        -0.07766
C         15.99571        25.00451        -0.65781
C         14.68135        25.71154        -0.45786
C         15.95390        27.87307         0.06569
C         14.66521        27.18082        -0.22372
C         15.91860        29.35481         0.00973
C         14.64923        29.98599         0.14973
C         18.31618         3.62724         2.11016
C         17.07848         4.28209         1.88622
C         18.41653         6.47037         1.69633
C         17.07338         5.75370         1.76170
C         18.45407         7.87877         1.18806
C         17.20756         8.48991         0.69619
C         18.49987        10.45981        -0.15458
C         17.28895         9.83545         0.23257
C         18.49908        11.80011        -0.72853
C         17.37163        12.68030        -0.63092
C         18.52698        14.90128        -1.02477
C         17.33882        14.11514        -0.79934
C         18.61791        16.31195        -0.57789
C         17.32183        17.06046        -0.37324
C         18.62403        19.20565        -0.23519
C         17.30429        18.56372        -0.64478
C         18.64207        20.64366         0.07565
C         17.34038        21.33195        -0.18400
C         18.58438        23.58265        -0.53113
C         17.33095        22.78017        -0.55603
C         18.51393        25.02431        -0.55634
C         17.27145        25.71186        -0.50425
C         18.46753        27.93003        -0.33991
C         17.25226        27.13440        -0.12746
C         18.38317        29.35036        -0.31494
C         17.12474        30.03127        -0.13540
C         19.53944         4.28106         1.94484
C         20.82371         6.22029         1.07533
C         19.62514         5.64483         1.61429
C         20.90075         7.50032         0.60375
C         19.77049         8.44762         0.67826
C         20.81888        10.10473        -0.87926
C         19.71580         9.67853        -0.15582
C         20.75869        11.30109        -1.62158
C         19.64690        12.11904        -1.52106
C         20.75684        15.23017        -2.04643
C         19.64086        14.44300        -1.76691
C         20.84542        16.56451        -1.59469
C         19.81237        17.13533        -0.87441
C         21.05095        19.30644        -0.54886
C         19.81568        18.54318        -0.47846
C         21.09447        20.66487        -0.50204
C         19.91571        21.45333        -0.12629
C         21.00084        23.70908        -0.38404
C         19.82380        22.93106        -0.39105
C         20.95333        25.09905        -0.47560
C         19.73335        25.79148        -0.53649
C         20.84860        28.04077        -0.77643
C         19.69191        27.25836        -0.56633
C         20.77854        29.43615        -0.74986
C         19.57157        30.09107        -0.51948
O         17.65539         6.39395         2.94538
O         15.30600        16.89336        -1.76529
O          6.17195        28.59411         2.53263
O          8.64078        11.21183        -2.06596
O         11.08203         6.56595        -1.21994
O         14.97723        22.50544         1.36089
O         15.88673        11.62963         1.13782
O          6.88409        12.47819         0.79076
O          2.34646        18.23407        -2.67511
O         16.63186        27.33327         1.24213
O         10.77592        27.42291         2.43851
O          4.69634        13.83117         0.52003
O         19.28425         8.72444         2.03950
O         14.48667        26.66477        -1.58121
O         18.04296        16.58719         0.77205
O          1.28853        23.83618         2.15913
O         15.88874        24.17951        -1.89551
O         11.67262        12.30083         1.09783
O          5.25559        18.18078        -2.49984
O         15.04920         8.86599        -1.32557
O         19.40694        21.09548         1.21751
O         19.60646        13.20265        -2.40739
O          9.40169        24.81811         2.38696
O         13.64807        19.99956         1.82865
O          5.93754         7.50481         1.63318
O         17.26123        21.69703        -1.58239
O         10.24815        16.48954         1.40339
O          6.94462        14.40963        -2.30186
O          1.28424         6.51099        -1.94357
O         13.07844        21.28135        -1.57786
O         11.94637        18.24034         2.05137
H         12.30240        19.02914         2.52566
O         16.49312        20.51035         1.86309
H         15.64955        20.40066         2.35920
O          3.62807        23.80030        -1.33649
H          3.73669        22.96493        -1.84094
O          1.30915        27.65786        -0.87992
H          2.10647        28.16272        -1.14516
O          3.84586        16.14850        -3.29249
H          3.94576        17.03879        -3.70332
O          2.73546        12.58853        -2.97176
H          3.29695        13.33544        -3.27583
O         14.93885        12.51282        -2.27923
H         14.21203        13.01054        -2.70815
O          3.72063        29.21569         3.21010
H          4.63688        28.95762         3.46788
O         10.80172        20.51310        -1.84967
H         11.66598        20.80835        -2.28122
O         17.23279        18.74324        -2.08237
H         16.37810        18.35457        -2.38893
H          1.17095         2.57772         1.52691
H         -0.86902         3.13972         0.19513
H         -0.72802         4.99717        -1.50499
H         -0.76621         7.97834        -2.24642
H         -0.90728        10.43958        -1.87130
H         -0.97531        12.31934        -1.19638
H         -0.96839        14.73154        -1.42262
H         -0.96237        16.63444        -1.23122
H         -0.97393        18.97711        -0.71878
H         -0.99937        20.76358        -0.09583
H         -1.01118        23.01959         0.81623
H         -0.98853        25.07669         1.31738
H         -0.95922        27.50517         1.00143
H          0.28709        29.67206         0.81865
H          3.52807         2.75460         1.82969
H          2.24203        30.83285         1.67096
H          5.94997         2.74715         1.85879
H          4.57895        30.56743         0.28961
H          8.44106         2.66176         1.84751
H          7.45441        30.84723         0.40834
H         10.90976         2.63399         1.88800
H          9.67585        30.88414         0.65668
H         13.38519         2.60839         2.01759
H         12.14941        31.02819         0.40826
H         15.81487         2.53435         2.04108
H         14.61229        31.08623         0.14187
H         18.30981         2.54580         2.30965
H         17.12910        31.13177        -0.14779
H         20.46670         3.69035         1.98641
H         21.70700         5.56890         0.99324
H         21.83630         7.82966         0.12985
H         21.73721         9.50412        -0.91227
H         21.58666        11.58881        -2.28132
H         21.55339        14.81326        -2.67550
H         21.73088        17.15135        -1.87083
H         21.98003        18.76488        -0.77612
H         22.03380        21.18223        -0.74681
H         21.97712        23.21723        -0.27489
H         21.89970        25.65573        -0.44978
H         21.81786        27.56119        -0.96742
H         21.69235        30.02383        -0.91489
H         19.53290        31.18950        -0.50534
