         480
 CSIRO Nanostructure Databank - Neutral Graphene Oxide Data Set
C         37.46778        49.92186         0.86562
C         36.30022        50.60386         1.16592
C         37.56126        52.63345         1.52901
C         36.34641        51.96938         1.49775
C         39.98391        48.47201         0.36235
C         39.95360        49.87219         0.57274
C         38.72479        50.57569         0.88498
C         40.04710        52.63901         1.26316
C         38.77044        51.95791         1.22997
C         40.16782        53.98242         1.83591
C         42.40031        48.50481         0.00823
C         41.17092        47.80582         0.12545
C         42.38191        49.90199         0.13821
C         41.17914        50.59309         0.48177
C         42.52438        52.69368         0.99549
C         41.19351        51.99176         0.81952
C         42.40271        54.22391         0.81590
C         41.28657        54.72540         1.70749
C         44.89091        45.67737        -0.27420
C         43.70642        46.37321        -0.17647
C         44.89868        48.49166        -0.19064
C         43.67924        47.79567        -0.15020
C         44.92263        49.97605        -0.51072
C         43.59729        50.68069        -0.21079
C         44.91942        52.83776         0.19714
C         43.62377        52.13183         0.11464
C         44.86813        54.33702         0.11417
C         43.77608        54.92448         1.05271
C         44.87734        57.11146         0.67266
C         43.73105        56.42501         0.86330
C         47.47285        44.23518        -0.43420
C         47.37874        45.62396        -0.26696
C         46.14069        46.34874        -0.24652
C         47.37177        48.50767        -0.05472
C         46.13822        47.78305        -0.16298
C         47.33606        49.92358         0.45805
C         46.11443        50.70899         0.07777
C         47.36889        52.84675         0.54568
C         46.10786        52.10409         0.25178
C         47.40436        54.31389         0.33544
C         46.19134        55.03182         0.32794
C         47.38346        57.14841         0.51316
C         46.16571        56.44517         0.50001
C         47.51472        58.49720         0.92803
C         49.92877        44.23244        -0.64685
C         48.69396        43.56663        -0.61563
C         49.94042        45.66336        -0.29240
C         48.62790        46.38106        -0.10706
C         49.85165        48.55659        -0.04121
C         48.60585        47.85828        -0.14459
C         49.83841        49.98834         0.15907
C         48.62488        50.66690         0.24270
C         49.95696        52.80676         0.12709
C         48.66507        52.10837         0.52169
C         49.90663        54.31209         0.22230
C         48.64924        54.97945         0.23335
C         49.87783        57.16111         0.03613
C         48.56419        56.45249        -0.11112
C         49.91818        58.49814         0.37887
C         48.72192        59.15063         0.86102
C         52.47088        41.54229        -1.23846
C         51.26592        42.20943        -1.15158
C         52.42972        44.35824        -0.77336
C         51.18909        43.60034        -0.87944
C         52.42228        45.74725        -0.57870
C         51.11828        46.48865        -0.75594
C         52.25996        48.49189         0.33678
C         51.10201        47.86763        -0.13381
C         52.09551        49.80887         0.86716
C         51.07046        50.65895         0.51939
C         52.48311        52.90717         0.47839
C         51.16097        52.16301         0.85402
C         52.40673        54.28730         0.10585
C         51.13020        54.97141         0.03443
C         52.36786        57.13772        -0.39380
C         51.07240        56.39194        -0.48279
C         52.24926        58.60513        -0.54111
C         51.13258        59.27836         0.15017
C         52.43573        61.35495         0.16836
C         51.22242        60.63306         0.36960
C         55.00649        40.06031        -0.71450
C         55.02503        41.49221        -1.20810
C         53.69947        42.23418        -1.05643
C         54.94201        44.35093        -0.75392
C         53.66736        43.61025        -0.86127
C         54.94195        45.83182        -0.61743
C         53.65230        46.63584        -0.67683
C         54.93092        48.65976         0.44276
C         53.61842        47.86733         0.26843
C         55.05725        50.16050         0.51610
C         53.99157        50.94451         0.93146
C         54.96473        53.01380         0.14820
C         53.77549        52.31069         0.54625
C         54.89907        54.41165        -0.12567
C         53.62072        55.03325        -0.14886
C         54.80474        57.16603        -0.85185
C         53.56364        56.46432        -0.40874
C         54.73882        58.63482        -1.16907
C         53.48435        59.40636        -0.87576
C         54.89506        61.41548        -0.22347
C         53.58015        60.77284        -0.33187
C         54.97188        62.73697         0.29821
C         57.38722        40.14612        -0.10603
C         56.12482        39.44890        -0.25495
C         57.40475        41.52469        -0.21988
C         56.17262        42.23371        -0.55613
C         57.26597        44.20299         0.42205
C         56.12405        43.56661        -0.32739
C         57.11249        45.68382         0.49545
C         56.11550        46.46313         0.03383
C         57.43728        48.71810        -0.25847
C         56.15859        47.95869        -0.08640
C         57.46001        50.18928        -0.14171
C         56.24258        50.87747         0.12470
C         57.42837        53.05723        -0.07455
C         56.20990        52.31260         0.07307
C         57.39273        54.44886        -0.24018
C         56.13950        55.14101        -0.34664
C         57.31443        57.25140        -0.96999
C         56.12596        56.52026        -0.67539
C         57.26561        58.66386        -1.46369
C         55.96886        59.48850        -1.45091
C         57.43141        61.33395        -0.31427
C         56.06203        60.73929        -0.59161
C         57.38622        62.79240         0.02511
C         56.19802        63.41456         0.34517
C         59.81081        37.25663         0.04656
C         58.68470        37.95915         0.21975
C         59.86465        40.14102        -0.30291
C         58.66423        39.46092         0.33888
C         59.85328        41.50811        -0.40820
C         58.64923        42.28706        -0.16686
C         59.82459        44.47043        -0.38422
C         58.64171        43.69369        -0.07400
C         59.95222        45.87403        -0.50351
C         58.98845        46.74584         0.06137
C         59.85476        48.77111        -0.87815
C         58.75021        48.05210        -0.33716
C         59.85431        50.19436        -0.78982
C         58.66394        50.86883        -0.36714
C         60.02958        53.04362        -0.32905
C         58.71069        52.31399        -0.08132
C         60.00459        54.53216        -0.44003
C         58.64431        55.23711        -0.36243
C         59.80924        57.29637        -1.10896
C         58.57301        56.61829        -0.87562
C         59.78960        58.77464        -1.06922
C         58.54190        59.46580        -1.50922
C         59.79415        61.75075        -1.33647
C         58.43630        61.01232        -1.48112
C         59.88425        63.10809        -0.54555
C         58.64693        63.60918         0.20636
C         60.13487        64.19685         2.12407
C         58.95274        63.74256         1.69127
C         62.39206        35.94940         0.66192
C         62.38353        37.29304         0.23846
C         61.12106        37.89807        -0.25440
C         62.40792        40.10150        -0.41751
C         61.12136        39.37854        -0.52568
C         62.40304        41.52487        -0.77181
C         61.07038        42.24446        -0.80452
C         62.31172        44.35783        -1.13349
C         61.13680        43.70870        -0.42395
C         62.29381        45.78264        -1.58647
C         60.90408        46.51715        -1.55681
C         61.94143        48.83132        -1.98169
C         60.94938        48.04274        -1.39891
C         62.16701        50.19000        -1.65209
C         61.06243        50.90994        -1.09993
C         62.28353        53.00637        -1.45045
C         61.14367        52.31576        -0.96314
C         62.25296        54.45696        -1.52285
C         61.13379        55.19359        -1.13410
C         62.22110        57.38066        -1.67633
C         61.04407        56.63120        -1.28292
C         62.28509        58.76723        -1.57465
C         61.08142        59.53255        -1.19008
C         62.25184        61.57654        -1.75330
C         61.03535        60.97287        -1.52450
C         62.35486        63.44168        -0.72876
C         61.16497        63.65492        -0.05723
C         62.53644        64.94563         1.65216
C         61.15996        64.63652         1.10219
C         62.66437        65.96567         2.54990
C         64.76209        36.08085         1.19729
C         63.55016        35.35758         1.13294
C         64.77865        37.43977         0.77766
C         63.57306        38.05611         0.32346
C         64.80657        40.23617         0.12531
C         63.57650        39.47174        -0.01766
C         64.82720        41.62951        -0.15579
C         63.62988        42.31705        -0.57251
C         64.78213        44.48015        -0.68887
C         63.60632        43.69726        -0.78710
C         64.77755        45.85847        -0.94675
C         63.61400        46.49082        -1.50962
C         64.84112        48.66465        -1.69658
C         63.77695        47.76342        -2.02484
C         64.72062        50.08470        -1.81019
C         63.45361        50.82846        -1.83309
C         64.72230        52.95586        -2.07540
C         63.44682        52.24571        -1.81885
C         64.69960        54.44373        -2.28224
C         63.30733        55.12666        -2.38721
C         64.71541        57.38843        -2.28046
C         63.38650        56.65321        -2.23049
C         64.74997        58.82444        -1.91850
C         63.52207        59.49835        -1.76152
C         64.73443        61.64523        -1.41375
C         63.52161        60.91647        -1.62774
C         64.78618        62.91251        -0.68300
C         63.65647        63.56150        -0.15815
C         65.03864        65.00499         1.32713
C         63.77010        64.19655         1.20766
C         65.10849        66.05122         2.32613
C         63.94164        66.45702         2.96224
C         67.10307        33.58608         2.76690
C         65.95286        34.17727         2.28316
C         67.21737        36.14397         1.57671
C         65.97651        35.45931         1.68437
C         67.22852        37.53388         1.15636
C         66.01109        38.18598         0.83109
C         67.20754        40.35415         0.70855
C         66.00906        39.59201         0.54249
C         67.19760        41.76303         0.46798
C         66.02639        42.37358         0.00445
C         67.04930        44.65280         0.30968
C         66.10924        43.79031        -0.51629
C         67.17227        46.03771        -0.30910
C         66.01063        46.63247        -0.84870
C         67.24313        48.76302        -1.15454
C         66.02688        48.01879        -1.21510
C         67.19840        50.14066        -1.45250
C         65.95243        50.83788        -1.64573
C         67.18597        53.01533        -1.46260
C         65.95843        52.23811        -1.71587
C         67.16651        54.51804        -1.59438
C         65.92950        55.24099        -1.99629
C         67.24570        57.34447        -2.13662
C         65.96004        56.59721        -2.11881
C         67.23744        58.85395        -2.13709
C         65.95427        59.56778        -1.91085
C         67.22557        61.77040        -1.76020
C         65.95815        60.94715        -1.63350
C         67.27906        62.91943        -0.77052
C         66.09400        63.42549        -0.26182
C         67.38400        65.38637         0.63119
C         66.13835        64.59654         0.60197
C         67.51335        66.47285         1.71658
C         66.39977        66.62067         2.66668
C         67.89078        67.85755         4.15304
C         66.63448        67.28314         3.86086
C         69.56114        32.29098         3.68193
C         69.59333        33.57201         3.08907
C         68.36402        34.21279         2.61644
C         69.71402        36.09178         1.71990
C         68.40633        35.47763         1.99110
C         69.72722        37.58743         1.29710
C         68.44065        38.29017         1.17526
C         69.66346        40.45687         1.16864
C         68.43457        39.69065         1.03118
C         69.63747        41.87963         1.06356
C         68.40269        42.56592         0.69417
C         69.51125        44.79562         0.87553
C         68.35779        43.93904         0.55232
C         69.57535        46.16492         0.31848
C         68.39446        46.76071        -0.23913
C         69.69424        48.79265        -0.71589
C         68.45841        48.09963        -0.74185
C         69.79098        50.12807        -1.31039
C         68.45859        50.86836        -1.65757
C         69.69872        53.00662        -1.52721
C         68.49028        52.32384        -1.56666
C         69.71634        54.48589        -1.41542
C         68.46183        55.24309        -1.67943
C         69.75859        57.35183        -1.66352
C         68.48593        56.59732        -1.81300
C         69.75820        58.85220        -1.71816
C         68.48379        59.59991        -1.84721
C         69.74715        61.68115        -1.59067
C         68.49232        60.95398        -1.71126
C         69.77295        62.95333        -1.07932
C         68.56217        63.57792        -0.54800
C         69.85857        65.67183         0.12311
C         68.61569        64.80273         0.09484
C         69.98113        66.54495         1.36827
C         68.87124        66.90048         2.12258
C         70.26976        68.35017         3.60108
C         68.99548        67.70573         3.31522
C         70.40609        69.28701         4.65074
C         71.94441        32.35227         4.07352
C         70.71512        31.68648         4.16580
C         72.00514        33.61138         3.49205
C         70.84603        34.24193         2.98413
C         72.09248        36.29035         2.27165
C         70.92385        35.54404         2.34011
C         72.10374        37.65340         1.89579
C         70.94872        38.34883         1.55977
C         72.05913        40.56547         1.65343
C         70.89098        39.79590         1.46359
C         72.02425        41.94617         1.57141
C         70.82264        42.62123         1.29126
C         72.04357        44.86709         1.07020
C         70.80491        44.10392         1.27680
C         72.01155        46.17613         0.72462
C         70.79230        46.86605         0.35225
C         72.05097        49.00089        -0.06017
C         70.85215        48.21915        -0.13671
C         72.10764        50.30786        -0.48883
C         70.98092        50.94382        -1.07988
C         72.19195        53.03084        -1.66104
C         70.96029        52.31400        -1.42129
C         72.22933        54.36785        -1.88898
C         71.04880        55.20158        -1.62222
C         72.12126        57.36278        -2.34902
C         71.02674        56.64590        -1.96054
C         72.09395        58.79979        -2.46511
C         70.99401        59.53692        -2.14187
C         72.20963        61.52727        -1.32635
C         71.02437        61.05190        -2.14272
C         72.23966        62.77320        -0.85294
C         71.08736        63.72022        -1.10290
C         72.32702        65.45949         0.19443
C         71.13061        64.90452        -0.16290
C         72.41074        66.57313         1.08057
C         71.28259        67.06496         1.72280
C         72.61168        68.73324         3.03807
C         71.39497        68.06172         2.78493
C         72.72183        69.65479         4.07130
C         71.61446        69.92871         4.88616
O         69.91948        44.69971         2.29331
O         59.56490        55.16778         0.79049
O         63.90953        57.19785        -3.49485
O         56.55407        48.33802        -1.43788
O         69.88752        36.50400         0.32804
O         58.01626        58.85356        -2.71623
O         69.29188        50.25274        -2.68213
O         54.59134        57.66508        -2.24678
O         67.34425        58.11327        -3.40530
O         59.73295        63.04537        -1.98576
O         67.03191        53.88831        -0.25714
O         61.68441        41.84584        -2.04506
O         62.30771        62.94445        -2.05153
O         64.89361        53.56408        -3.44181
O         61.13248        38.39668        -1.63824
O         59.66440        52.59185         1.01045
O         62.20951        44.67019        -2.55442
O         58.20788        46.27745         1.13713
O         60.46406        59.27000         0.13191
O         49.46157        45.92679         1.05012
O         48.04005        52.46164         1.81360
O         54.35504        47.85065         1.52372
O         62.80303        48.23953        -2.90544
O         69.83154        58.14884        -0.41593
O         55.25056        45.23225        -1.92823
O         70.48471        54.97232        -0.27445
O         52.46029        59.16883        -1.89312
O         53.04907        50.32455         1.74763
O         67.18232        66.80774         0.33148
O         43.24915        51.70674        -1.24036
O         44.51605        54.63760        -1.26458
H         43.63358        54.23067        -1.44494
O         50.87832        56.24082        -1.95028
H         51.24014        57.04874        -2.37960
O         50.99108        52.32474         2.27248
H         51.65491        51.75244         2.71605
O         55.72586        59.97007        -2.80592
H         55.48444        59.18180        -3.34404
O         48.25239        56.46633        -1.55756
H         49.08277        56.18374        -2.02272
O         66.70503        43.69733        -1.84630
H         66.07951        43.21308        -2.42559
O         57.92081        61.48749        -2.71181
H         57.19421        60.88548        -3.01952
O         47.22457        49.78494         1.93574
H         47.43662        50.67904         2.30702
O         55.27524        41.42290        -2.64386
H         56.15961        41.02070        -2.77465
O         61.54357        43.72079         0.99031
H         60.78557        43.40934         1.52913
O         69.71171        66.57476        -1.03741
H         70.34810        67.31075        -0.91224
O         53.59744        47.24544        -2.00922
H         54.14633        46.66915        -2.59553
O         58.36486        64.93859        -0.32733
H         58.36074        64.84607        -1.30631
O         41.98330        54.44557        -0.55353
H         41.79078        55.39967        -0.66714
O         66.44159        44.83582         1.62025
H         67.12570        45.19717         2.22319
O         45.13050        50.03599        -1.95804
H         44.62601        50.82394        -2.27454
O         71.19845        61.52563        -3.49969
H         71.23755        62.51211        -3.45122
O         42.94752        52.38956         2.34508
H         42.26743        52.73325         2.96157
O         62.80750        54.89525        -3.72238
H         63.34366        55.45381        -4.32986
O         63.89531        63.05759         2.14491
H         64.03500        63.43493         3.03959
O         60.71691        65.91234         0.55594
H         59.79920        65.78501         0.19662
O         50.13564        52.56750        -1.29549
H         50.07227        51.60394        -1.46848
O         58.01561        60.62786         0.83900
H         57.48563        60.85545         1.63193
O         57.18279        43.72687         1.80896
H         57.67210        44.37445         2.36187
O         71.23103        64.24285        -2.46780
H         70.56109        64.95684        -2.56519
O         67.18606        62.38290        -3.08808
H         66.36433        62.91445        -3.14968
O         58.78237        39.72272         1.78367
H         58.47195        40.63918         1.94761
O         50.93419        46.66433        -2.19527
H         51.79197        47.02410        -2.53507
O         60.26014        46.27353        -2.81907
H         60.65134        45.44481        -3.18900
O         44.21457        54.67115         2.40305
H         43.65592        55.18994         3.01687
H         37.40430        48.85943         0.59497
H         35.33510        50.07959         1.13750
H         37.57707        53.70449         1.77265
H         35.41757        52.51018         1.72573
H         39.05759        47.88544         0.42135
H         39.32636        54.37728         2.42384
H         41.13920        46.71528         0.00704
H         41.34342        55.73059         2.15405
H         44.85837        44.58141        -0.33376
H         42.76845        45.80399        -0.15566
H         44.84729        58.20922         0.60540
H         42.77472        56.96119         0.97350
H         46.55565        43.63265        -0.49088
H         46.63883        59.02897         1.32751
H         48.65376        42.48338        -0.79646
H         48.77628        60.19728         1.18716
H         52.47237        40.46771        -1.46412
H         50.33884        41.63700        -1.29050
H         52.44833        62.39381         0.52180
H         50.38063        61.18391         0.80968
H         54.09287        39.46348        -0.84926
H         54.06562        63.27794         0.59247
H         56.07735        38.38199         0.00665
H         56.21867        64.47172         0.64695
H         59.75775        36.15725         0.03776
H         57.74760        37.41801         0.41671
H         60.34298        64.30046         3.20003
H         58.16725        63.45187         2.40615
H         61.47511        35.34869         0.60319
H         61.76377        66.47537         2.92212
H         63.51502        34.30221         1.43127
H         63.97388        67.25705         3.71429
H         67.02164        32.60600         3.25371
H         65.00215        33.64215         2.40380
H         67.98569        68.42090         5.09055
H         65.82581        67.39628         4.59639
H         68.61260        31.74505         3.76824
H         69.54570        69.53089         5.28829
H         72.85890        31.87857         4.45614
H         70.66120        30.68810         4.62117
H         72.97921        34.11313         3.41931
H         73.03716        35.86784         2.63989
H         73.05749        38.18770         2.00087
H         73.01389        40.07662         1.88403
H         72.94678        42.51150         1.75682
H         73.01562        44.37033         1.19484
H         72.96786        46.70340         0.61164
H         72.94665        48.57310         0.40780
H         73.03238        50.88233        -0.33915
H         73.11153        52.44092        -1.78408
H         73.16422        54.84686        -2.21173
H         73.07550        56.85419        -2.54799
H         73.01243        59.30408        -2.79748
H         73.05261        60.84150        -1.15283
H         73.10859        63.11473        -0.27298
H         73.27438        65.02757        -0.15722
H         73.40959        66.95196         1.33091
H         73.48985        68.54269         2.40663
H         73.67601        70.17016         4.24764
H         71.69902        70.65826         5.70332
