         324
 CSIRO Nanostructure Databank - Neutral Graphene Oxide Data Set
C          1.32411         3.38410         1.03449
C          0.14948         3.62424         0.34357
C          1.21381         5.53821        -0.69606
C          0.11374         4.68090        -0.57403
C          1.17235         7.82522        -1.22006
C         -0.00680         8.54791        -1.22158
C          1.18983        10.64826        -1.01934
C         -0.00095         9.94240        -0.98362
C          1.24089        12.09766        -0.99284
C          0.04166        12.85319        -0.90248
C          1.21373        14.99441        -0.89949
C          0.04303        14.24798        -0.78820
C          1.22764        16.43936        -0.88185
C          0.07059        17.22307        -0.66410
C          1.23756        19.32798        -1.07647
C          0.09473        18.63283        -0.72182
C          1.31067        20.83193        -1.32249
C          0.03030        21.54970        -1.01215
C          1.21655        23.45391        -0.02811
C          0.01756        22.79289        -0.48118
C          1.09989        24.77659         0.62868
C         -0.03154        25.68597         0.35141
C          1.15729        27.67789         1.18544
C          0.00825        27.02406         0.64512
C          1.20701        29.07771         1.38290
C          3.72047         3.66849         1.24417
C          2.46626         4.21070         0.85191
C          3.54839         6.36456         0.08315
C          2.39576         5.40832         0.06087
C          3.61731         7.73875        -0.55644
C          2.44993         8.41942        -0.95147
C          3.75731        10.62542        -1.09517
C          2.44677         9.88356        -1.20030
C          3.72158        12.09388        -0.89956
C          2.48446        12.78539        -0.99404
C          3.72286        14.99829        -0.89567
C          2.47813        14.26604        -1.31315
C          3.70278        16.39278        -0.95987
C          2.46524        17.10947        -1.10117
C          3.79066        19.33724        -1.10379
C          2.46537        18.56262        -1.28996
C          3.73219        20.75115        -0.65507
C          2.52933        21.45025        -0.63518
C          3.67238        23.43905         0.36881
C          2.45265        22.78707        -0.07529
C          3.66289        24.76835         0.84778
C          2.37510        25.42226         1.14404
C          3.68031        27.63019         1.58015
C          2.36562        26.88957         1.46784
C          3.67455        29.11068         1.50831
C          2.39572        29.76342         1.58712
C          6.12434         3.59259         0.83895
C          4.90501         4.28646         0.85791
C          6.18029         6.31431         0.14142
C          4.89165         5.71052         0.51155
C          6.11706         7.78522        -0.00664
C          4.86021         8.47576        -0.42204
C          6.17719        10.61412        -0.64663
C          4.94659         9.86014        -0.67950
C          6.17246        12.05014        -0.70956
C          4.93409        12.76765        -0.70247
C          6.20567        14.93930        -0.35138
C          4.86325        14.21431        -0.27179
C          6.17856        16.41691        -0.55612
C          4.92044        17.15762        -0.76895
C          6.23383        19.25012        -0.56202
C          4.97781        18.53388        -0.76616
C          6.19848        20.68147        -0.33711
C          4.97261        21.37812        -0.26929
C          6.13052        23.41259         0.44129
C          4.93495        22.75801         0.16941
C          6.13044        24.74160         1.04739
C          4.87627        25.49948         1.07227
C          6.15630        27.62116         1.27214
C          4.93251        26.88745         1.30914
C          6.13611        29.11368         1.00663
C          4.85436        29.79973         1.38640
C          8.41184         3.18519         0.67447
C          7.37898         4.16650         0.54169
C          8.58014         6.29893        -0.33935
C          7.38241         5.60202         0.14697
C          8.60690         7.66361        -0.55733
C          7.44084         8.50915        -0.25580
C          8.61837        10.62334        -0.92106
C          7.42253         9.93281        -0.65337
C          8.62060        12.03318        -1.02597
C          7.42264        12.75106        -0.79158
C          8.64927        14.89175        -0.72897
C          7.46273        14.19841        -0.67615
C          8.68438        16.37379        -0.82953
C          7.42390        17.14507        -0.92067
C          8.76130        19.31349        -0.81079
C          7.43938        18.59263        -0.65863
C          8.69641        20.71559        -0.26903
C          7.45709        21.34986        -0.15929
C          8.70995        23.53331         0.25262
C          7.40284        22.80118         0.04398
C          8.70556        24.89089         0.79278
C          7.45036        25.51390         1.20505
C          8.64191        27.69826         1.20534
C          7.39700        26.97791         1.21993
C          8.61589        29.13908         1.42660
C          7.38826        29.80125         1.47116
C         10.54781         4.31399         1.24039
C          9.82379         3.19440         0.86910
C         11.10736         6.20899        -0.68503
C          9.75967         5.52199        -0.86348
C         11.12905         7.67091        -0.97016
C          9.80321         8.35506        -1.13863
C         11.17477        10.55514        -1.14227
C          9.85448         9.85268        -1.20723
C         11.18750        12.00238        -1.41438
C          9.87915        12.74590        -1.36935
C         11.21128        14.88851        -0.72641
C          9.92727        14.23608        -1.09130
C         11.16457        16.26051        -0.17473
C          9.87429        17.07629        -0.27909
C         11.13656        19.17739         0.09388
C          9.94814        18.52980        -0.27993
C         11.13326        20.60344         0.24565
C          9.93394        21.36877         0.07049
C         11.13863        23.48444         0.63055
C          9.94955        22.76048         0.35296
C         11.13481        24.87705         0.72220
C          9.89802        25.59543         0.84639
C         11.11746        27.73194         1.16694
C          9.87089        27.02222         1.10617
C         11.09520        29.16159         1.38389
C          9.85749        29.82220         1.56153
C         13.10509         3.89330         1.56595
C         11.97264         4.56385         1.00798
C         13.43963         6.34887         0.17826
C         12.17768         5.67799         0.18925
C         13.51504         7.66946        -0.26794
C         12.24548         8.47686        -0.33760
C         13.60358        10.62088        -0.70046
C         12.35447         9.89994        -0.86149
C         13.67658        12.01319        -0.71007
C         12.49022        12.77524        -1.15566
C         13.65309        14.84880        -0.40447
C         12.42547        14.21257        -0.78919
C         13.61910        16.23505         0.07492
C         12.39291        17.03342        -0.01610
C         13.65113        19.10838         0.36380
C         12.38801        18.41108         0.21973
C         13.64511        20.52151         0.77249
C         12.31412        21.25598         0.82486
C         13.70567        23.48595         1.07562
C         12.38514        22.75176         0.95722
C         13.70584        24.93569         0.77769
C         12.39937        25.64251         0.47427
C         13.54733        27.79184         0.86059
C         12.34174        27.06759         0.95901
C         13.51740        29.22635         0.96088
C         12.31116        29.87761         1.29380
C         15.57326         3.74959         1.96653
C         14.40410         4.37537         1.36633
C         15.81620         6.31089         0.76232
C         14.58393         5.64709         0.70198
C         15.91015         7.68118         0.42725
C         14.80362         8.34378        -0.27248
C         15.99504        10.58940         0.11374
C         14.85153         9.86726        -0.47168
C         16.07028        12.01161        -0.04510
C         14.91204        12.71653        -0.41934
C         16.12695        14.90258        -0.28204
C         14.89785        14.17455        -0.38170
C         16.17993        16.30914        -0.17270
C         14.93530        16.98955         0.18714
C         16.12817        19.13547         0.33722
C         14.88153        18.45022         0.22468
C         16.04794        20.46430         0.88198
C         14.92302        21.26368         0.87046
C         16.36223        23.56303         0.85810
C         15.03323        22.74015         1.11280
C         16.18030        25.00462         0.45170
C         14.86766        25.65022         0.59814
C         15.83300        27.86577         0.03836
C         14.75962        27.11194         0.49862
C         15.78803        29.30243         0.05232
C         14.67595        29.95649         0.58931
C         18.02155         3.72859         2.48661
C         16.82871         4.30877         1.90474
C         18.18399         6.39802         1.59720
C         17.06822         5.53944         1.06377
C         18.07200         7.76410         1.58400
C         16.98705         8.45081         0.92122
C         18.92373        10.78777         0.55785
C         16.94941         9.86287         0.83613
C         18.64331        11.86589        -0.30010
C         17.41224        12.69514        -0.00322
C         18.53229        14.90478        -0.91566
C         17.42048        14.16377        -0.26673
C         18.69573        16.33921        -0.45997
C         17.37068        17.09380        -0.27501
C         18.59029        19.31711        -0.36167
C         17.36356        18.48852        -0.01508
C         18.96008        20.67639         0.17509
C         17.97660        21.60493         0.74757
C         18.74548        23.79756        -0.08710
C         17.70449        22.94325         0.49153
C         18.48907        25.14487        -0.48311
C         17.18859        25.72087        -0.18277
C         18.11064        27.99485        -1.08744
C         16.96640        27.14474        -0.56636
C         18.04644        29.46611        -0.91457
C         16.91093        30.06479        -0.42063
C         19.23915         4.35684         2.44563
C         20.65621         6.28191         1.70600
C         19.40636         5.71960         1.96581
C         20.88812         7.54711         1.06507
C         20.04602         8.63503         1.18612
C         20.83231        10.10514        -0.72529
C         19.97755         9.85572         0.37340
C         20.61194        11.18740        -1.57551
C         19.52679        12.06455        -1.37334
C         20.25842        15.19384        -2.64012
C         19.35745        14.38666        -1.90386
C         20.35424        16.56716        -2.35037
C         19.62537        17.13023        -1.32474
C         21.10915        19.10247        -0.96417
C         19.73457        18.58330        -1.04581
C         21.35895        20.32616        -0.44004
C         20.26299        21.09714         0.07015
C         21.08827        24.07953        -0.81761
C         20.10218        23.38333        -0.11388
C         20.79082        25.33216        -1.32869
C         19.54446        25.93093        -1.05100
C         20.52694        28.18707        -1.44852
C         19.43591        27.37209        -1.23120
C         20.40303        29.60957        -1.51671
C         19.21729        30.23378        -1.23837
O          6.87391         8.39616         1.09542
O         10.25468        16.42480         0.98053
O         20.57970        22.32045         0.67529
O          6.84544        24.80568         2.34338
O          6.35118        15.84327         0.80554
O         12.05200        12.42512        -2.50556
O          4.08593         6.50508         1.44022
O          1.49743        24.68244         2.05106
O         19.07691         8.53310         2.21668
O         17.94338        10.56981         1.54257
O          1.08590         6.51277        -1.68015
O         18.76179        19.36375        -1.84139
O         17.10619        27.42706        -2.00450
O          3.21045        10.24517        -2.41014
O         11.56539         6.74344        -1.98611
O         15.87593        23.23365         2.19297
O         14.29351        16.39652         1.37090
O          8.17321        16.79808        -2.15372
O          9.65180         9.01863        -2.42749
O         15.19105         8.95485        -1.56862
O          8.05070        23.52217        -1.08990
O         12.83162        20.61622         2.02278
O         12.88909        23.18359         2.26618
O         17.66238        13.62995         1.11052
O          3.28373        19.04623        -2.44155
O          9.79950        13.70071        -2.46403
O         19.31260        13.04997        -2.33703
O         17.12476        20.93119         1.62183
O          9.61551         4.51161        -1.52912
O          2.97692        27.15267         2.77849
O          8.97756        19.44138        -2.26228
H          8.78791        18.55378        -2.65530
O          6.17143        29.22008        -0.48450
H          7.05669        28.91106        -0.77528
O         19.28600        16.28831         0.88958
H         18.80897        15.58508         1.38633
O         17.52894         5.04595        -0.24730
H         16.81452         4.48426        -0.61657
O          4.47960        14.14474         1.13992
H          4.93889        14.89652         1.58829
O         11.81250         8.64832         1.06285
H         12.52727         9.10280         1.55717
O         10.48095         2.01662         0.68415
H          9.86634         1.34271         0.33389
O         12.41938        25.76241        -1.01069
H         11.63296        26.28655        -1.27571
O          2.48560        14.32586        -2.79760
H          1.71859        13.80068        -3.11230
O          1.50633        21.01922        -2.75999
H          2.25321        20.42685        -3.02906
H          1.41393         2.50618         1.68914
H         -0.72275         2.96976         0.47245
H         -0.77381         4.86441        -1.19237
H         -0.95399         8.02897        -1.41488
H         -0.96517        10.45524        -0.87694
H         -0.92622        12.33883        -0.85597
H         -0.91932        14.75353        -0.62278
H         -0.88658        16.73284        -0.44161
H         -0.84058        19.17535        -0.52360
H         -0.91116        21.09503        -1.35154
H         -0.94577        23.30322        -0.33960
H         -0.92615        25.28158        -0.14255
H         -0.87015        27.64470         0.41173
H          0.27029        29.64952         1.30148
H          3.74818         2.64623         1.64883
H          2.37574        30.85968         1.67307
H          6.09378         2.53263         1.13295
H          4.84062        30.90072         1.36480
H          8.00754         2.15597         0.66874
H          7.36418        30.88909         1.63643
H          9.94920         5.22251         1.41810
H          9.85088        30.91091         1.72095
H         12.94924         2.99113         2.17461
H         12.29765        30.97448         1.37893
H         15.42221         2.81640         2.53208
H         14.65830        31.05545         0.62974
H         17.94298         2.72980         2.94335
H         16.87374        31.16022        -0.32438
H         20.12542         3.83555         2.83914
H         21.53304         5.62292         1.81997
H         21.79146         7.63419         0.44132
H         21.66791         9.42118        -0.93060
H         21.27395        11.35159        -2.43535
H         20.84879        14.74559        -3.44810
H         21.01970        17.19884        -2.95647
H         21.93405        18.43867        -1.25943
H         22.37931        20.71957        -0.34466
H         22.10219        23.66554        -0.88599
H         21.57128        25.89167        -1.85861
H         21.53427        27.76440        -1.55846
H         21.30005        30.20382        -1.73928
H         19.14998        31.33104        -1.22162
