         621
 CSIRO Nanostructure Databank - Neutral Graphene Oxide Data Set
C          6.44424        31.99253        -1.45497
C          6.36260        33.33907        -1.29427
C          8.82608        27.63558        -0.84725
C          8.69358        29.10890        -0.52995
C          7.67604        29.85411        -1.12448
C          8.43538        31.86866         0.01261
C          7.51532        31.22744        -0.84803
C          8.17762        33.29129         0.49671
C          7.29799        34.07864        -0.46739
C          8.28491        36.24805         0.24418
C          7.33757        35.43834        -0.54649
C          8.46173        37.69207        -0.01539
C         10.70399        23.26492         0.01938
C         10.72707        24.73320         0.17767
C          9.54265        25.42320         0.14027
C         10.73445        27.55616         0.74804
C          9.43173        26.90107         0.35695
C         10.73846        28.97629         0.90511
C          9.62377        29.74230         0.33363
C         10.42634        31.83679         1.50550
C          9.50054        31.13338         0.55063
C         10.62137        33.30979         1.12569
C          9.48529        34.01536         0.79122
C         10.69583        36.23182         1.15124
C          9.42617        35.49059         0.88588
C         10.75578        37.69113         0.89220
C          9.58516        38.39092         0.39630
C         10.79709        40.55982         0.61803
C          9.64847        39.83151         0.34773
C         10.66894        42.01071         0.81232
C         13.49816        19.35170        -1.27727
C         13.34602        20.75612        -1.09073
C         12.05613        21.24214        -0.81278
C         13.46594        23.79511        -0.44971
C         11.67827        22.62236        -0.70299
C         13.24477        24.81218         0.47825
C         11.95350        25.44594         0.54894
C         13.05461        27.44846         1.64647
C         11.88391        26.79594         0.99238
C         13.08696        28.93768         1.75080
C         11.83379        29.62792         1.49975
C         13.02312        31.81214         1.93080
C         11.72103        31.06884         1.79487
C         13.07680        33.16652         1.35121
C         11.93154        33.93365         1.12700
C         13.20584        36.24565         0.92997
C         11.98305        35.43361         1.10065
C         13.17833        37.62238         1.29088
C         11.93655        38.37883         1.12866
C         13.27519        40.40445         1.16556
C         12.03001        39.82225         0.93092
C         13.58031        41.76586         0.85679
C         11.69703        42.90244         0.60805
C         13.19422        44.81166         1.21286
C         11.91443        44.27007         1.00090
C         13.34223        46.22949         1.25108
C         16.02104        15.22039        -1.99587
C         16.03163        16.59740        -1.74924
C         14.80305        17.31220        -1.71334
C         15.98543        19.46991        -1.42381
C         14.72449        18.69091        -1.47908
C         15.87958        20.80649        -0.81200
C         14.61915        21.54857        -1.02307
C         15.79585        23.44052         0.31803
C         14.69022        23.02877        -0.55984
C         15.64375        24.69479         1.03163
C         14.42613        25.35232         1.12048
C         15.61935        27.42091         1.94454
C         14.34995        26.68198         1.76799
C         15.57007        28.86548         2.43014
C         14.27602        29.59134         2.04826
C         15.63775        31.81532         2.01130
C         14.31607        31.06730         2.13619
C         15.60308        33.14899         1.34460
C         14.38360        33.56698         0.89241
C         15.68236        36.19250         1.04797
C         14.43831        35.69480         0.59551
C         15.63832        37.53918         1.50981
C         14.40378        38.24671         1.54616
C         15.64467        40.37207         1.97221
C         14.32213        39.67594         1.98567
C         15.63973        41.85819         2.28248
C         14.50789        42.52619         1.51648
C         15.73476        44.70956         1.75570
C         14.41132        44.00405         1.57082
C         15.82433        46.19668         1.62261
C         14.55837        46.92679         1.35595
C         15.82590        49.01283         0.86608
C         14.62258        48.31119         1.08650
C         15.81284        50.35807         0.47321
C         18.57408        11.07626        -3.10667
C         18.37680        12.22873        -2.24029
C         17.21816        13.11959        -2.37487
C         18.40908        15.06576        -1.33465
C         17.19208        14.41148        -1.88607
C         18.46613        16.54973        -1.39684
C         17.31210        17.27642        -1.53040
C         18.51659        19.47284        -0.88409
C         17.33166        18.76229        -1.45063
C         18.31018        20.75735        -0.39373
C         17.00416        21.39933        -0.26799
C         17.97554        23.06568         1.47614
C         16.91976        22.65853         0.45685
C         18.01598        24.58258         1.65701
C         16.85643        25.31178         1.54709
C         18.08294        27.42804         2.01157
C         16.81080        26.73722         1.86317
C         18.04560        28.88203         1.92162
C         16.83524        29.61250         1.99991
C         17.99972        31.64288         1.22987
C         16.85873        31.01258         1.78554
C         18.11533        33.11737         0.87289
C         16.83852        33.90683         0.89400
C         18.09675        36.07582         1.41985
C         16.89973        35.41260         1.09293
C         18.09395        37.47589         1.77318
C         16.86484        38.19055         1.82115
C         18.04793        40.30029         2.21405
C         16.81203        39.62713         1.99472
C         18.13540        41.69759         1.70387
C         16.94395        42.56051         1.88095
C         18.16707        44.56314         0.99247
C         16.98084        43.90204         1.62640
C         18.31517        46.03730         0.96736
C         17.14724        46.86308         1.37432
C         18.18475        48.73524         0.04255
C         17.18307        48.36693         1.11173
C         18.13175        50.17555        -0.40190
C         16.97857        51.02179        -0.01380
C         18.20560        52.99568        -0.86140
C         17.02943        52.37486        -0.30945
C         18.22172        54.36133        -1.16633
C         21.13599         7.37465        -4.93910
C         21.08096         8.40337        -3.92282
C         19.92737         9.20654        -3.93116
C         20.94980        10.84032        -2.41395
C         19.77194        10.35499        -3.10848
C         20.94383        12.13465        -1.86665
C         19.66227        12.81792        -1.61214
C         21.00025        14.98909        -1.50636
C         19.68192        14.27213        -1.25273
C         20.99081        16.39331        -0.93990
C         19.78172        17.22144        -1.24599
C         21.03559        19.14282        -0.19713
C         19.82822        18.71951        -0.97126
C         21.17604        20.46418         0.15330
C         19.38260        21.65042         0.02688
C         20.55869        23.07454         1.71620
C         19.33044        22.56517         1.02925
C         20.59482        24.52967         2.07744
C         19.26503        25.26080         2.09029
C         20.57567        27.43490         2.15696
C         19.27412        26.73598         2.02129
C         20.56909        28.91818         1.87365
C         19.24018        29.52272         1.52563
C         20.96899        31.82814         0.97591
C         19.07597        30.79237         0.95423
C         20.69273        33.17983         1.42955
C         19.44144        33.90943         1.00538
C         20.66939        36.13648         1.80069
C         19.42799        35.40348         1.32138
C         20.62078        37.51500         2.08802
C         19.31782        38.15662         2.15061
C         21.03423        40.64696         2.15930
C         19.15289        39.52195         2.52375
C         20.74956        41.67747         1.33485
C         19.40012        42.28439         1.13996
C         20.67714        44.38574         0.34037
C         19.39022        43.72537         0.68605
C         20.64451        45.81157         0.07797
C         19.45759        46.60620         0.39057
C         20.56297        48.59569        -0.63760
C         19.46222        47.99675        -0.00898
C         20.51550        50.00164        -0.97648
C         19.39504        50.80244        -0.79509
C         20.58764        52.87477        -1.47046
C         19.41237        52.22889        -1.04859
C         20.60627        54.24929        -1.79477
C         19.39295        55.00565        -1.64793
C         20.59739        57.03867        -2.31186
C         19.41658        56.39367        -1.90134
C         20.64473        58.46561        -2.34949
C         23.64871         4.71477        -5.73159
C         22.43293         5.37486        -5.86017
C         23.52399         6.69609        -3.50933
C         21.93454         6.24641        -4.84624
C         23.41945         8.02843        -3.02780
C         22.19350         8.76270        -3.05910
C         23.28418        10.57257        -1.72568
C         22.15624        10.06025        -2.40586
C         23.32101        11.92914        -1.26171
C         22.14605        12.73875        -1.40971
C         23.34976        14.69980        -0.60877
C         22.18119        14.13136        -1.08540
C         23.39516        16.16078        -0.38009
C         22.12823        16.93369        -0.40400
C         23.28570        18.82574         0.77162
C         22.14980        18.28777         0.12973
C         23.19192        20.09730         1.51636
C         21.93679        20.91932         1.28232
C         23.15032        23.06521         1.85860
C         21.86132        22.33553         1.76508
C         23.11733        24.49730         1.86961
C         21.90241        25.21131         1.96276
C         23.16374        27.40740         1.78023
C         21.91123        26.67661         2.12775
C         23.15274        28.78868         1.64191
C         21.91498        29.60467         1.71488
C         23.20125        31.79223         1.79555
C         22.01454        31.06883         1.43057
C         23.20167        33.16564         1.87658
C         21.93722        33.92626         1.92164
C         23.15646        36.04383         1.94217
C         21.93465        35.41194         1.85307
C         23.22645        37.49343         2.18697
C         21.93706        38.25863         2.34747
C         23.21518        40.11446         1.07068
C         22.25820        39.80766         2.20380
C         23.04333        41.33493         0.24492
C         21.79815        42.15141         0.39128
C         23.05054        44.20478        -0.34009
C         21.81875        43.61254         0.10691
C         22.94397        45.59319        -0.93895
C         21.76608        46.42904        -0.48346
C         22.93360        48.40455        -1.41778
C         21.77692        47.81786        -0.84537
C         22.88852        49.80334        -1.86689
C         21.68058        50.63532        -1.63275
C         23.01618        52.73999        -2.19724
C         21.88660        52.12154        -1.40617
C         23.03676        54.09855        -2.42691
C         21.80772        54.88922        -2.26308
C         22.96947        56.93222        -3.12330
C         21.78366        56.25702        -2.55406
C         23.02138        58.45566        -3.06662
C         21.83004        59.17524        -2.55746
C         23.16312        61.22733        -2.42440
C         21.92871        60.56315        -2.32074
C         24.70809         5.02462        -4.83637
C         26.03148         6.63075        -3.37820
C         24.72491         6.08093        -3.91637
C         25.86581         7.90816        -2.57067
C         24.62557         8.56228        -2.46060
C         25.73461        10.28538        -0.93542
C         24.49214         9.73408        -1.58536
C         25.69725        11.66742        -0.30525
C         24.49858        12.51325        -0.72538
C         25.70360        14.48302         0.16467
C         24.53623        13.90149        -0.41035
C         25.67562        15.83095         0.73879
C         24.59414        16.75253         0.29243
C         25.63614        18.69025         1.46282
C         24.53046        18.11017         0.88833
C         25.63289        20.11229         1.89636
C         24.38575        20.89060         1.87128
C         25.63000        23.06447         1.83296
C         24.37165        22.31179         1.87067
C         25.61850        24.47157         1.76744
C         24.38010        25.23363         1.78128
C         25.65334        27.32601         1.21937
C         24.37847        26.62823         1.65230
C         25.69422        28.80591         1.56266
C         24.41762        29.53552         1.42232
C         25.73101        31.72192         1.87547
C         24.45726        31.03757         1.57325
C         25.71881        33.08986         2.11127
C         24.50346        33.89080         1.69382
C         25.72254        36.08228         2.30019
C         24.42467        35.31298         2.19354
C         25.71061        37.49142         1.84594
C         24.50423        38.17642         1.79673
C         25.64405        40.10336         0.65164
C         24.42821        39.45607         1.12550
C         25.57079        41.38415         0.13611
C         24.28401        41.96371        -0.39957
C         25.49392        44.16004        -0.72961
C         24.25202        43.49463        -0.41875
C         25.51761        45.63379        -0.90346
C         24.23779        46.37290        -0.88053
C         25.32817        48.30358        -2.05380
C         24.19586        47.72752        -1.47095
C         25.15477        49.60787        -2.61515
C         24.14304        50.46204        -2.25293
C         25.58114        52.68161        -2.33625
C         24.27163        51.94233        -2.21381
C         25.52132        54.13256        -2.62734
C         24.29307        54.76937        -2.76271
C         25.59177        56.96728        -3.17567
C         24.25605        56.16981        -3.20677
C         25.52166        58.42523        -3.01062
C         24.33974        59.13150        -2.96185
C         24.33670        60.54150        -2.69998
C         27.03416         8.47544        -2.01590
C         28.23919        10.34888        -0.95374
C         27.03848         9.69528        -1.31119
C         28.26312        11.67266        -0.46226
C         26.97990        12.46233        -0.57302
C         28.24530        14.36613         0.71143
C         26.92294        13.68964         0.31743
C         28.23994        15.82157         0.94055
C         26.95292        16.48990         1.23472
C         28.04352        18.74949         0.82021
C         26.97496        17.97888         1.58780
C         28.02155        20.28334         0.87607
C         26.92384        20.88738         1.73783
C         28.11791        23.02337         1.65153
C         26.88124        22.36740         1.70933
C         28.15518        24.45370         1.76074
C         26.88752        25.18396         1.72772
C         28.17769        27.27508         1.54142
C         26.89541        26.56033         1.60946
C         28.15721        28.76797         1.54303
C         26.87521        29.51314         1.66423
C         28.17719        31.67058         1.80293
C         26.93940        30.95184         1.83728
C         28.20858        33.05575         1.92128
C         26.99701        33.79388         2.29548
C         28.24044        36.01327         1.78913
C         27.03040        35.33011         2.28030
C         28.19043        37.38304         1.40000
C         26.93900        38.08979         1.36847
C         28.11882        40.02887         0.46434
C         26.91067        39.41399         0.85902
C         28.09163        41.45326         0.11605
C         26.78737        42.17861        -0.03662
C         27.96321        44.24678        -0.87014
C         26.72527        43.52121        -0.66858
C         28.01336        45.59162        -1.21113
C         26.72808        46.25233        -1.54177
C         28.10241        48.35066        -2.41897
C         26.69012        47.63161        -2.12439
C         28.14591        49.87547        -2.24143
C         27.09188        50.67520        -2.71101
C         28.07749        52.81107        -2.13175
C         26.92241        52.03999        -2.45918
C         27.99330        54.18881        -2.18163
C         26.77242        54.87386        -2.56215
C         26.77217        56.25013        -2.70659
C         29.45173        12.35109        -0.16819
C         30.65177        14.48732         0.16126
C         29.49085        13.72526         0.22608
C         30.64528        15.90175         0.39458
C         29.38748        16.55300         0.71627
C         30.58664        18.79851         0.63445
C         29.33205        18.03176         0.59813
C         30.57535        20.18813         0.96330
C         29.36459        20.91051         1.18638
C         30.62274        22.95241         1.67532
C         29.37164        22.27842         1.51020
C         30.64609        24.38874         1.90316
C         29.38819        25.11660         1.86229
C         30.60959        27.24440         2.09770
C         29.43585        26.56229         1.88802
C         30.64653        28.71331         2.25326
C         29.37880        29.48597         2.01750
C         30.67121        31.63519         2.11764
C         29.46710        30.91450         1.53579
C         30.74513        33.08211         1.78513
C         29.44900        33.82997         1.71984
C         30.68707        35.98773         1.50658
C         29.46390        35.31442         1.74316
C         30.68137        37.36022         1.13014
C         29.41090        38.02659         1.00639
C         30.60159        40.07328         0.24951
C         29.37005        39.37231         0.55099
C         30.59340        41.40944        -0.16895
C         29.30560        42.04596        -0.49090
C         30.46392        44.26681        -0.60286
C         29.24037        43.49422        -0.85223
C         30.39361        45.66200        -0.68738
C         29.25428        46.35112        -1.24864
C         30.57186        48.42238        -1.83206
C         29.31540        47.68738        -1.69912
C         30.53142        49.84286        -1.91925
C         29.34238        50.56634        -1.94382
C         29.39138        52.09098        -1.86634
C         31.80207        16.67254         0.27317
C         33.03099        18.80713         0.55173
C         31.80906        18.09441         0.48450
C         33.06389        20.17479         0.87250
C         31.82160        20.87039         1.12391
C         33.12530        22.86872         1.79317
C         31.82629        22.22608         1.52757
C         33.13728        24.37254         2.03435
C         31.84574        25.07639         2.02343
C         33.10520        27.25925         1.74685
C         31.91183        26.54024         2.36505
C         33.09707        28.70085         1.74362
C         31.93770        29.40973         2.11253
C         33.21114        31.62664         1.99820
C         31.96809        30.87068         2.28837
C         33.25340        32.99980         1.96174
C         32.01173        33.81687         2.08405
C         33.25187        35.96397         1.39163
C         31.97429        35.29260         1.80394
C         33.20638        37.37935         0.91609
C         31.89472        38.06720         0.81457
C         33.05356        40.09211        -0.10120
C         31.86630        39.40388         0.36776
C         33.06489        41.46779        -0.39228
C         31.79617        42.16383        -0.30533
C         33.54915        44.55677        -1.00239
C         31.66040        43.57498        -0.27938
C         33.36782        45.81715        -1.65172
C         32.29866        46.67272        -1.34553
C         31.87414        47.84502        -1.98855
C         34.30045        20.88348         0.91687
C         35.55186        22.98537         1.26951
C         34.36389        22.22879         1.30291
C         35.56090        24.40205         1.39103
C         34.34933        25.11733         1.65700
C         35.48125        27.20402         0.96693
C         34.27028        26.52079         1.46253
C         35.50828        28.73227         1.02848
C         34.31334        29.44595         1.50668
C         35.65693        31.50117         1.60487
C         34.38983        30.84339         1.65891
C         35.77053        32.97272         1.45260
C         34.43094        33.65253         1.31932
C         35.56056        35.73315         0.24147
C         34.34932        35.07736         0.87430
C         35.51988        37.19223        -0.04036
C         34.34974        37.90352         0.12463
C         35.50953        39.93963        -0.92514
C         34.21565        39.24876        -0.43958
C         35.46068        41.39701        -1.02167
C         34.29014        42.12724        -0.89349
C         34.35333        43.50163        -1.38867
C         36.77374        25.12282         1.15888
C         37.97271        27.25663         0.76246
C         36.78662        26.51149         0.99946
C         38.03317        28.66867         0.83611
C         36.81954        29.36293         1.20105
C         38.56532        31.67791         0.94917
C         36.79901        30.67834         1.66758
C         38.26052        32.94494         0.48641
C         37.03601        33.68024         0.91202
C         38.07556        35.72602        -0.27473
C         36.85794        34.99226         0.17847
C         37.97782        37.07212        -0.57366
C         36.74864        37.83539        -0.49124
C         36.75464        39.19202        -0.77384
C         39.22747        29.35510         0.39831
C         40.35532        31.35568        -0.63811
C         39.41345        30.74112         0.26914
C         40.27944        32.69630        -0.91700
C         39.21869        33.54448        -0.41741
C         39.19773        34.92170        -0.64877
O         20.06668        31.25380         0.08607
O         21.87516        50.10723        -2.97469
O         26.56672        20.35630         3.02608
O         22.36349         5.92326        -3.53499
O         13.42411        26.77910         2.91706
O         27.57972        42.27947         1.22595
O         28.33978        18.32061        -0.53256
O         18.39603        43.98391        -0.35611
O         20.16955        40.23358         3.16737
O         31.97991        34.76332         3.18795
O         24.86351         9.37750        -0.17774
O         29.25427        42.45306        -1.90603
O         19.85932        24.74758         3.34008
O         33.66368        37.02350         2.29691
O         12.18890        31.54597         3.10603
O         15.02357        31.63036         3.31109
O         22.03646        20.01863         2.42175
O         19.65535        34.86018        -0.05658
O         34.55862        39.30038        -1.85862
O         18.76808        12.01021        -0.82684
O         28.31515        28.06754         0.26652
O         31.15147        31.34146         3.43680
O         21.95873        41.25260        -0.77305
O         12.79715        42.38989        -0.11438
O         37.98213        31.24062         2.14313
O          8.28830        35.93947         1.69242
O         16.78923        19.42532        -2.64956
O         14.91180        22.63478        -1.95478
O         20.95257        22.33895         2.93369
O         24.42592        30.41973         0.22730
O         17.67325        49.06091        -1.27591
O         20.60374        21.45523        -0.63533
O         18.96031        14.57988        -0.03929
O         21.20028        29.57575         3.02622
O         35.93299        34.94739        -0.95579
O         12.52995        23.52041        -1.42158
O         35.29916        28.00966        -0.23648
O         20.96545        33.36434         2.85822
O         32.75057        44.32393         0.14392
O         20.07870        18.19839        -2.31441
O         21.28748        27.11455         3.38741
O         29.76421        29.20296         3.36800
O         25.04338        52.34015        -0.95849
O         17.41156        33.42809        -0.37087
O         18.52155        41.50756         0.26103
O         27.21631        34.59313         3.52534
O         26.03460        15.83495         2.16558
O         14.39638        34.51050        -0.13798
O         22.64469        37.77718         3.52918
O         24.48052        16.79757        -1.17265
O         36.69608        33.70263         2.32826
O         33.27719        23.41753         3.14402
O         16.65388        46.67379         2.75338
O         27.47962        13.55240         1.64871
O         31.48365        46.37173        -0.21690
O         30.19397        33.38508         0.46902
O         25.01017        56.42896        -4.41408
O         33.91210        34.00687        -0.02543
O         11.34716        35.84807         2.39330
O         24.95448        35.70483         3.48658
O         26.12669        50.05714        -3.49705
O         26.58151        46.44667        -3.00013
O         25.03888        46.29760         0.33612
O         22.72566        57.74084        -4.31132
O         14.90031        44.41489         2.92798
O         32.15202        26.61767         3.81518
H         31.47329        26.07143         4.26545
O         17.71846        48.97975         2.31675
H         17.29528        48.51631         3.07656
O         21.06897        15.10854        -2.95932
H         21.78406        15.74184        -3.18257
O         22.73134        45.36852        -2.37034
H         21.86947        44.91437        -2.48433
O         30.40899        52.58213        -2.75140
H         30.14704        52.36673        -3.67004
O         27.66494        20.74982        -0.45692
H         28.05013        20.09975        -1.09273
O         15.57932        28.80046         3.88187
H         14.79779        28.27129         4.15515
O         13.86334        39.68980         3.38003
H         14.25349        40.49168         3.81003
O         17.61927        22.47851         2.75238
H         18.33211        22.71116         3.38830
O         28.34916        48.12904        -3.82294
H         27.94091        47.26088        -4.05410
O         15.43977        41.96637         3.72041
H         15.24264        42.92342         3.89487
O          8.48846        27.11935         1.44581
H          8.86726        26.73112         2.26199
O         24.67782        34.07228         0.23813
H         24.63880        33.18595        -0.18473
O         22.33019        52.23370        -0.00601
H         23.30989        52.34887         0.00205
O         27.42962        18.00538         2.95923
H         26.81542        17.44731         3.48424
O         25.64423        27.28622        -0.25289
H         26.51383        27.65774        -0.54112
O         26.96906         6.84427        -4.44579
H         26.61512         7.54262        -5.03333
O         25.58668        11.49639         1.12017
H         25.05052        10.68365         1.27000
O         22.94831        40.22925         3.40410
H         23.14481        39.41114         3.92993
O          9.69427        31.87393         2.77018
H         10.35836        32.08225         3.46971
O          9.69426        27.45392        -1.96888
H          9.33953        27.96502        -2.72426
O          7.44029        33.17002         1.73843
H          8.04527        32.72747         2.38480
O         26.89577        12.90849        -1.95518
H         27.76702        13.27132        -2.21972
O         24.28010        41.58886        -1.80760
H         23.33187        41.48397        -2.06353
O         29.66786        30.81309         0.10798
H         29.74524        31.73354        -0.24587
H          5.72520        31.46413        -2.09762
H          5.58580        33.91074        -1.82428
H          7.81057        27.20452        -1.07726
H          6.95940        29.35412        -1.79437
H          6.66985        35.96242        -1.24853
H          7.62362        38.23842        -0.47408
H          9.88953        22.70301         0.49856
H          8.60623        24.88074        -0.05843
H          8.71541        40.37218         0.12872
H          9.71214        42.37145         1.21998
H         12.58058        18.74363        -1.30461
H         11.26570        20.48878        -0.66862
H         11.05285        44.95359         1.07117
H         12.44197        46.82851         1.04080
H         15.07285        14.73581        -2.27234
H         13.86973        16.73802        -1.81497
H         13.67620        48.84396         0.90272
H         14.85926        50.90893         0.48634
H         17.76971        10.78891        -3.80020
H         16.32869        12.73040        -2.89359
H         16.15568        53.01051        -0.10018
H         17.31107        54.96011        -1.01571
H         20.54567         7.54116        -5.85328
H         19.08855         8.91377        -4.58027
H         18.50754        56.98985        -1.73311
H         19.73785        59.01921        -2.06175
H         23.90322         3.99661        -6.52676
H         21.86655         5.26458        -6.79687
H         23.20510        62.30794        -2.22879
H         21.03195        61.12066        -2.01467
H         25.67139         4.53371        -5.04454
H         26.49664         5.85092        -2.71498
H         26.46723        58.96117        -2.83317
H         25.29778        61.07561        -2.69854
H         27.99656         7.98658        -2.22915
H         29.19202         9.81911        -1.10790
H         28.89620        54.79536        -2.02096
H         27.67238        56.82696        -2.44700
H         30.40947        11.82598        -0.30850
H         31.59156        14.01334        -0.15937
H         31.48296        50.39369        -1.91848
H         29.72973        52.36421        -0.82862
H         32.75873        16.17239         0.06195
H         33.97622        18.26916         0.38729
H         33.98914        46.04956        -2.52773
H         32.60325        48.42513        -2.57549
H         35.22218        20.36080         0.62059
H         36.49056        22.48159         0.99357
H         36.38864        41.92341        -1.29308
H         35.11163        43.69385        -2.16296
H         37.71543        24.55938         1.07690
H         38.90564        26.70094         0.58094
H         38.86074        37.58710        -0.98296
H         37.70980        39.71636        -0.92725
H         39.97843        28.71207        -0.09082
H         41.12370        30.73306        -1.11918
H         41.01369        33.14744        -1.60045
H         40.03341        35.39316        -1.18732
