         200
 CSIRO Nanostructure Databank - Neutral Graphene Oxide Data Set
C        -11.03840         0.70634        -0.47373
C         -9.83452         1.45074        -0.20395
C         -8.65193         0.70806         0.09191
C         -7.45234         1.45629         0.49107
C         -6.14603         0.69819         0.60637
C         -4.89399         1.47321         0.48916
C         -3.67990         0.77362         0.41934
C         -2.45674         1.45438         0.56404
C         -1.22067         0.69621         0.81695
C          0.11066         1.46904         0.85892
C          1.33671         0.71462         0.59261
C          2.54545         1.42987         0.33335
C          3.74503         0.72100         0.13791
C          4.97792         1.43321        -0.15064
C          6.12607         0.73449        -0.47574
C          7.29344         1.46693        -1.08683
C          8.61421         0.68416        -1.02155
C          9.91600         1.44565        -0.91518
C         11.11349         0.70008        -0.48451
C         -9.80534         2.85901        -0.21237
C         -8.60076         3.60771        -0.00420
C         -7.39034         2.91062         0.28216
C         -6.16845         3.60653         0.42447
C         -4.89914         2.88955         0.52816
C         -3.66029         3.58586         0.49083
C         -2.42874         2.86880         0.54923
C         -1.16359         3.56613         0.46443
C          0.05284         2.90243         0.53513
C          1.31170         3.58434         0.33602
C          2.52578         2.87905         0.28173
C          3.77460         3.58705         0.12424
C          4.96814         2.88591        -0.11333
C          6.21324         3.59911        -0.30432
C          7.39232         2.90385        -0.61815
C          8.65066         3.60265        -0.67781
C          9.86705         2.90284        -0.78792
C         -8.56612         5.02134        -0.08261
C         -7.37222         5.73902         0.13455
C         -6.17097         5.02101         0.39597
C         -4.91491         5.74449         0.65666
C         -3.63065         5.03584         0.49246
C         -2.44956         5.73776         0.33698
C         -1.18924         4.99036        -0.02760
C          0.08887         5.73630         0.25790
C          1.30029         5.02821         0.29274
C          2.55755         5.71646         0.34241
C          3.77169         5.03002         0.21305
C          5.02271         5.75106         0.06624
C          6.22417         5.02993        -0.19071
C          7.45083         5.74343        -0.40597
C          8.64692         5.02171        -0.58078
C         -7.33257         7.17800        -0.03700
C         -6.16647         7.90555         0.03035
C         -4.91072         7.25779         0.46043
C         -3.62716         7.91301         0.17485
C         -2.42639         7.18108         0.22450
C         -1.17939         7.87303         0.08902
C          0.06627         7.17045         0.19777
C          1.27286         7.89760         0.26525
C          2.52522         7.17470         0.51651
C          3.84443         7.94018         0.36616
C          5.04613         7.16533         0.04356
C          6.24018         7.87386        -0.29098
C          7.42941         7.16725        -0.46642
C         -6.08667         9.31092        -0.30453
C         -4.89602         9.97435        -0.34879
C         -3.62268         9.30464        -0.14606
C         -2.40536         9.97922        -0.25142
C         -1.16898         9.29194        -0.08258
C          0.07143         9.98380        -0.11329
C          1.28928         9.31339         0.07842
C          2.55235        10.00981        -0.05390
C          3.76799         9.36549        -0.01605
C          5.01775        10.01707        -0.33845
C          6.18462         9.31851        -0.43126
C        -11.04186        -0.66311        -0.47973
C         -9.83999        -1.42310        -0.26210
C         -8.62943        -0.70397         0.03075
C         -7.39954        -1.44124         0.15456
C         -6.15706        -0.75455         0.32435
C         -4.95145        -1.44350         0.24109
C         -3.69135        -0.67852         0.15848
C         -2.40167        -1.42385         0.16363
C         -1.15651        -0.72552         0.52607
C          0.05682        -1.42192         0.54179
C          1.31042        -0.69463         0.59355
C          2.52910        -1.42052         0.44408
C          3.75160        -0.71140         0.21056
C          4.93996        -1.43819        -0.00367
C          6.09286        -0.75633        -0.69055
C          7.41923        -1.43880        -0.43880
C          8.61297        -0.74306        -0.61457
C          9.86561        -1.42187        -0.44464
C         11.09256        -0.64890        -0.36014
C         -9.82382        -2.82572        -0.35067
C         -8.62064        -3.56397        -0.24849
C         -7.38991        -2.85059        -0.03989
C         -6.15635        -3.56886        -0.05601
C         -4.92047        -2.86833         0.07919
C         -3.69735        -3.58739         0.06528
C         -2.42059        -2.90174         0.47753
C         -1.18394        -3.52880        -0.14739
C          0.07525        -2.83751         0.31688
C          1.27634        -3.55030         0.34443
C          2.52194        -2.83898         0.42866
C          3.74966        -3.55994         0.42058
C          4.98434        -2.83513         0.22533
C          6.22800        -3.52489         0.14489
C          7.43416        -2.83894        -0.16553
C          8.68173        -3.55486        -0.16548
C          9.88165        -2.81011        -0.27425
C         -8.58535        -4.98600        -0.37048
C         -7.38719        -5.70290        -0.36361
C         -6.13687        -4.98214        -0.24574
C         -4.90239        -5.66217        -0.33495
C         -3.67310        -4.97552        -0.16241
C         -2.39954        -5.70627        -0.10224
C         -1.18698        -5.01956         0.03661
C          0.04242        -5.71175         0.15492
C          1.27600        -4.98966         0.24833
C          2.49839        -5.69636         0.32294
C          3.72132        -4.97481         0.44114
C          4.96401        -5.72087         0.62025
C          6.29777        -4.94190         0.49223
C          7.51602        -5.70567         0.16575
C          8.68464        -4.97979        -0.08533
C         -7.35384        -7.14557        -0.45468
C         -6.17157        -7.84797        -0.54771
C         -4.89584        -7.10653        -0.62840
C         -3.59892        -7.86865        -0.48111
C         -2.37994        -7.13219        -0.09312
C         -1.19529        -7.83428         0.13566
C          0.04293        -7.13752         0.21191
C          1.28619        -7.84751         0.22792
C          2.50297        -7.13884         0.27069
C          3.75762        -7.84562         0.21234
C          4.97614        -7.16222         0.34320
C          6.23423        -7.83666         0.21168
C          7.44631        -7.12516         0.15290
C         -6.09389        -9.29250        -0.59156
C         -4.91873        -9.98431        -0.49364
C         -3.63147        -9.33838        -0.29549
C         -2.48858       -10.01164         0.02032
C         -1.21773        -9.31355         0.44651
C          0.07300        -9.98868         0.05518
C          1.27427        -9.29909         0.08296
C          2.54194        -9.96737        -0.05293
C          3.74689        -9.27962         0.02596
C          5.02179        -9.95353        -0.04949
C          6.20083        -9.26959         0.03744
O         -1.24801        -9.39498         1.92913
H         -0.42411        -8.97483         2.25769
O          3.27725         7.65160         1.68675
O         -2.29278        -3.05198         1.91523
H         -3.11733        -2.73690         2.34043
O         -4.97759         6.65716         1.80190
O         -1.24696         4.88969        -1.50925
H         -0.43877         4.41470        -1.79957
O         -2.97369        -1.01972        -1.11513
O          5.82077        -0.93063        -2.13495
H          6.18884        -0.12992        -2.59172
O         -0.57839         1.08350         2.08610
O         -6.91304         1.04073         1.81018
O          6.95878         1.55444        -2.52599
H          7.83282         1.60112        -2.98960
O         -1.27338        -3.28577        -1.58056
H         -0.50909        -3.71994        -2.01314
O          5.72900        -5.29791         1.79568
O         -4.08464        -7.45939        -1.81034
O          9.40343         0.91997        -2.23895
H         12.01477        -1.18866        -0.09683
H         12.04105         1.26399        -0.30582
H         10.81434         3.45786        -0.72268
H          9.59679         5.56589        -0.68824
H          8.36301         7.70923        -0.67819
H          7.11970         9.84566        -0.67182
H          5.00924        11.10325        -0.51368
H          2.52099        11.08254        -0.30000
H          0.07263        11.07126        -0.28087
H         -2.39541        11.06127        -0.45040
H         -4.87791        11.04667        -0.59399
H         -7.02254         9.84649        -0.52383
H         -8.26675         7.68465        -0.32485
H         -9.49072         5.57037        -0.31525
H        -10.73552         3.40893        -0.42010
H        -11.96684         1.26131        -0.67315
H        -11.97504        -1.20825        -0.68542
H        -10.76537        -3.36104        -0.54642
H         -9.53587        -5.52820        -0.48911
H         -8.31036        -7.69069        -0.43646
H         -7.03895        -9.85135        -0.67048
H         -4.94247       -11.08466        -0.49367
H         -2.52099       -11.10633         0.14116
H          0.08171       -11.08431        -0.05318
H          2.54904       -11.05997        -0.18525
H          5.02747       -11.04526        -0.18505
H          7.15662        -9.80890        -0.03907
H          8.37701        -7.69079        -0.00895
H          9.63342        -5.51657        -0.23756
H         10.84681        -3.33345        -0.20061
