         429
 CSIRO Nanostructure Databank - Neutral Graphene Oxide Data Set
C          1.21868         3.29828        -0.33477
C          0.08418         4.01682        -0.59014
C          1.18669         6.17718        -0.20579
C          0.08824         5.45426        -0.58880
C          1.22482         7.63925        -0.27413
C         -0.00344         8.39447        -0.41688
C          1.21772        10.49533        -0.80701
C         -0.01922         9.74703        -0.54632
C          1.23635        12.00682        -0.82039
C         -0.00707        12.76909        -0.61364
C          1.23100        14.87885        -0.33104
C          0.00726        14.11713        -0.46387
C          1.22072        16.30386        -0.22358
C         -0.00014        17.07029        -0.27156
C          1.18384        19.18033         0.12228
C         -0.01173        18.42852        -0.04712
C          1.19648        20.56764         0.37794
C         -0.02455        21.31102         0.52657
C          1.17566        23.44732         0.55813
C         -0.03311        22.67357         0.60846
C          1.11810        24.85683         0.49111
C         -0.08968        25.61699         0.37774
C          1.14138        27.72716         0.01173
C         -0.07942        26.98155         0.22129
C          1.13058        29.17876        -0.23448
C         -0.05073        29.90241        -0.34951
C          1.13554        32.02905        -0.53881
C         -0.04483        31.30305        -0.52805
C          1.17348        33.49804        -0.92351
C         -0.09134        34.28850        -0.69942
C          1.18617        36.37008        -0.53350
C         -0.06249        35.64043        -0.62441
C          1.24466        37.77318        -0.57665
C          3.65335         3.30867         0.02948
C          2.45266         3.97180        -0.02741
C          3.69497         6.14362         0.08543
C          2.39047         5.43668         0.34327
C          3.66284         7.61307         0.21343
C          2.41774         8.33250        -0.11810
C          3.76319        10.52410        -0.20496
C          2.52198         9.75346        -0.50771
C          3.76433        11.98465        -0.14519
C          2.53397        12.73957        -0.51995
C          3.63666        14.87173         0.13763
C          2.45933        14.18201        -0.19084
C          3.64453        16.28612         0.15722
C          2.44077        16.99770        -0.04814
C          3.68767        19.15403         0.39097
C          2.48094        18.49438        -0.22056
C          3.67457        20.55873         0.56291
C          2.44288        21.28134         0.48413
C          3.66559        23.40349         0.51634
C          2.43576        22.71967         0.54867
C          3.66682        24.87584         0.51439
C          2.35997        25.64089         0.51782
C          3.60874        27.70899        -0.39307
C          2.34123        27.05176         0.08840
C          3.61033        29.20168        -0.22894
C          2.37864        29.89810        -0.27755
C          3.61456        32.03395        -0.39046
C          2.37666        31.32965        -0.38841
C          3.62104        33.48888        -0.30853
C          2.39003        34.22094        -0.38145
C          3.60212        36.35313         0.06675
C          2.38563        35.61500        -0.31830
C          3.66739        37.80705        -0.18488
C          2.45744        38.46844        -0.47642
C          6.10305         3.33680         0.34223
C          4.90796         4.00824         0.18668
C          6.17013         6.16517         0.10071
C          4.90091         5.46588         0.11137
C          6.20014         7.63218        -0.25108
C          4.94795         8.35899         0.18391
C          6.18408        10.50180         0.26924
C          4.93785         9.83401         0.02504
C          6.13296        11.93653         0.72300
C          4.87298        12.65751         0.29939
C          6.14310        14.84571         0.39002
C          4.84036        14.12525         0.65494
C          6.13619        16.25891         0.38919
C          4.88424        17.00278         0.38303
C          6.13225        19.05293         1.06245
C          4.86746        18.39682         0.55875
C          6.11612        20.56713         0.96452
C          4.93050        21.26495         0.79208
C          6.12362        23.43478         0.72294
C          4.92464        22.71733         0.66433
C          6.17839        24.83390         0.27303
C          4.88651        25.58540         0.04831
C          6.10429        27.75157         0.00155
C          4.89457        27.05244         0.04361
C          6.09692        29.19077        -0.15338
C          4.84136        29.88992        -0.24462
C          6.09229        32.00286        -0.42612
C          4.84065        31.32001        -0.32431
C          6.05453        33.45511        -0.65754
C          4.84082        34.16692        -0.23852
C          6.25467        36.31581         0.20179
C          4.91423        35.57515         0.14067
C          6.15903        37.80251        -0.12254
C          4.91589        38.46263        -0.20537
C          8.55680         3.34728         0.49977
C          7.35671         4.03452         0.41833
C          8.62027         6.20346         0.42757
C          7.35901         5.48331         0.29072
C          8.59522         7.66108         0.48144
C          7.44198         8.35909         0.21155
C          8.63507        10.53840         0.48447
C          7.38641         9.80496         0.32502
C          8.61545        11.99652         0.34902
C          7.39866        12.69569         0.38014
C          8.59954        14.85190         0.22314
C          7.37109        14.13033         0.32461
C          8.58805        16.27767         0.24011
C          7.36499        16.96547         0.33067
C          8.65540        19.08125         0.75518
C          7.34437        18.47736         0.29163
C          8.70270        20.53491         1.07122
C          7.38977        21.27403         1.20453
C          8.65972        23.46127         0.73740
C          7.39486        22.78843         1.07312
C          8.68278        24.90487         0.84800
C          7.35007        25.67100         0.62344
C          8.58162        27.78985         0.23053
C          7.36504        27.08676         0.23710
C          8.56637        29.20433        -0.01347
C          7.31776        29.89963        -0.16246
C          8.57103        32.06572        -0.41449
C          7.31596        31.32798        -0.35080
C          8.59217        33.43422        -0.66373
C          7.35070        34.21316        -0.81053
C          8.56497        36.45363        -0.97927
C          7.37911        35.64727        -0.53150
C          8.61836        37.83801        -0.37122
C          7.37045        38.50175        -0.19889
C         10.99112         3.37527         0.14441
C          9.80852         4.04421         0.41561
C         11.13488         6.12928         0.87257
C          9.80084         5.49559         0.53302
C         11.10970         7.64774         1.05659
C          9.81347         8.39744         0.90888
C         11.08262        10.61698         0.84962
C          9.81381         9.86850         0.72325
C         11.10390        12.01001         0.34300
C          9.84942        12.69234         0.19342
C         11.05908        14.81460         0.00627
C          9.84661        14.13139         0.10491
C         11.09348        16.25527         0.24574
C          9.84321        17.01168         0.22733
C         11.12635        19.14289         0.20724
C          9.90389        18.38932         0.36294
C         11.07702        20.60428         0.30891
C          9.95670        21.26816         0.73147
C         11.15830        23.50647         0.48956
C          9.96241        22.75413         1.02736
C         11.12778        24.94027         0.44345
C          9.91011        25.65765         0.58648
C         11.05844        27.76247         0.23356
C          9.84966        27.06786         0.38365
C         11.04566        29.20287        -0.05281
C          9.77909        29.94672        -0.07909
C         11.05846        32.08339        -0.09999
C          9.81407        31.34483        -0.22046
C         11.08406        33.48157        -0.29455
C          9.86736        34.15992        -0.75984
C         11.11477        36.37315        -0.48521
C          9.88308        35.67514        -0.88876
C         11.09753        37.79176        -0.28999
C          9.83553        38.47660        -0.19859
C         13.41963         3.45858        -0.62790
C         12.15725         4.11773        -0.35567
C         13.49389         6.32014        -0.14474
C         12.20381         5.63308        -0.08296
C         13.56752         7.69965         0.25808
C         12.48915         8.33696         1.12981
C         13.60090        10.58381         0.46748
C         12.40970         9.86565         0.95691
C         13.57543        11.98347         0.25559
C         12.31956        12.67667         0.17666
C         13.59573        14.84389        -0.21072
C         12.30515        14.07733        -0.38684
C         13.61892        16.26981        -0.28431
C         12.39485        17.03338         0.06455
C         13.53438        19.21329        -0.54710
C         12.31035        18.48456        -0.12804
C         13.59547        20.66725        -0.24973
C         12.25559        21.38066        -0.25203
C         13.56980        23.51912         0.06376
C         12.32877        22.82081         0.19127
C         13.56190        24.94115         0.09267
C         12.34686        25.64657         0.19840
C         13.52037        27.81694         0.31339
C         12.32407        27.09071         0.21438
C         13.49551        29.23684         0.69884
C         12.31350        29.97365         0.18832
C         13.47714        32.13389         0.43866
C         12.27474        31.43677         0.27279
C         13.49353        33.51917         0.15447
C         12.29171        34.20482        -0.18679
C         13.55107        36.33589        -0.15497
C         12.30811        35.64374        -0.31622
C         13.55609        37.78225        -0.16626
C         12.32089        38.47179        -0.15381
C         15.80455         3.51718        -1.18720
C         14.58288         4.18680        -0.85831
C         15.85586         6.31191        -0.82784
C         14.61610         5.62772        -0.65546
C         15.85918         7.77239        -0.67114
C         14.72216         8.42203         0.00804
C         16.00863        10.55266         0.05264
C         14.79381         9.85955         0.20566
C         16.03236        11.97008        -0.00546
C         14.80127        12.68254         0.00047
C         16.05520        14.78214        -0.33971
C         14.81102        14.11130        -0.18639
C         16.04629        16.20935        -0.69154
C         14.79904        16.96204        -0.52981
C         16.11625        19.15157        -0.61073
C         14.82152        18.43012        -0.72284
C         16.07525        20.67050        -0.77584
C         14.78314        21.35250        -0.29555
C         16.02418        23.50900         0.03005
C         14.80783        22.80237        -0.09014
C         16.07486        24.91816         0.16976
C         14.83278        25.66754        -0.04623
C         16.03750        27.90876         0.59463
C         14.81969        27.20059         0.13069
C         16.05692        29.26617         0.88417
C         14.75831        29.98595         1.00088
C         16.02326        32.12874         0.56030
C         14.72977        31.51602         1.06476
C         15.97455        33.44848         0.11009
C         14.75090        34.20489         0.08735
C         16.06276        36.32656         0.12249
C         14.75354        35.60809        -0.04959
C         16.01918        37.78401        -0.27897
C         14.79199        38.47076        -0.23835
C         18.24607         3.49294        -1.54326
C         17.01178         4.19632        -1.28633
C         18.32958         6.30451        -1.08523
C         17.05036         5.62770        -1.09933
C         18.42282         7.69084        -0.80985
C         17.18773         8.48177        -0.68222
C         18.53402        10.52116        -0.21195
C         17.28281         9.75773         0.12005
C         18.52695        11.93796        -0.16286
C         17.28397        12.67131        -0.11424
C         18.54432        14.81003        -0.24210
C         17.28837        14.08347        -0.26320
C         18.57910        16.23366        -0.29095
C         17.36304        16.98377        -0.69243
C         18.62126        19.16732        -0.60119
C         17.30267        18.47389        -0.57346
C         18.65147        20.70224        -0.58751
C         17.30562        21.30022        -0.09382
C         18.49019        23.47264         0.49838
C         17.34182        22.83635        -0.27208
C         18.51153        24.95523         0.57004
C         17.28161        25.63355         0.42387
C         18.49644        27.77244         1.22735
C         17.21565        27.05673         0.84040
C         18.50026        29.26180         1.28518
C         17.29680        30.02938         1.06879
C         18.48126        32.28151         0.65291
C         17.26914        31.44506         0.80287
C         18.46253        33.46510        -0.13366
C         17.15292        34.05050        -0.61316
C         18.35108        36.22876        -0.84738
C         17.21402        35.57020        -0.50006
C         18.42816        37.69013        -0.78053
C         17.22687        38.42724        -0.55817
C         19.44641         4.13860        -1.51843
C         20.76963         6.20520        -1.11336
C         19.52721         5.55216        -1.24728
C         20.84220         7.56238        -0.81807
C         19.67259         8.33703        -0.66079
C         20.92910        10.52349        -0.55138
C         19.71858         9.79719        -0.45200
C         20.95273        11.90067        -0.39131
C         19.76217        12.63957        -0.21333
C         20.95482        14.79487         0.15235
C         19.76172        14.08710        -0.09683
C         20.95727        16.17879         0.22046
C         19.78444        16.91483        -0.03625
C         20.99996        19.13514         0.31311
C         19.86449        18.38894        -0.24033
C         20.93306        20.50536         0.52256
C         19.81759        21.28125         0.20205
C         21.00821        23.50528         0.69737
C         19.77812        22.70636         0.60267
C         20.96554        24.85195         0.84467
C         19.73445        25.62168         0.86103
C         20.96533        27.73281         1.34211
C         19.77051        27.02951         1.08709
C         20.92611        29.05980         1.75419
C         19.71881        29.78570         1.74717
C         20.87511        32.74922         1.07870
C         19.70577        32.02090         1.30923
C         20.85635        33.80684         0.17260
C         19.64273        34.18214        -0.41693
C         20.81599        36.21619        -1.39613
C         19.54603        35.41257        -1.31162
C         20.83012        37.57037        -1.27632
C         19.64697        38.32336        -0.99511
O          7.84353        25.42652         1.95971
O         19.76652        31.05914         2.32404
O         18.84928        22.88708         1.79491
O         16.34473         8.53266        -1.86011
O         16.78319        16.50967        -1.94479
O          3.16314        25.45808         1.76598
O          7.38631        22.11817         2.41763
O         10.30918         7.95864         2.24095
O         19.50615        18.67791        -1.66741
O          2.07798        12.51815        -1.90055
O          5.62692        25.00364        -1.07866
O         13.89824        29.45921         2.09716
O         11.79699        10.48725         2.12334
O         11.74047         5.14888        -1.36345
O          6.51733        33.84831        -2.01766
O          4.14068        35.89177         1.35695
O         17.62637        27.18163         2.26198
O         11.94238        16.62100         1.40935
O          2.02403         9.94360        -1.88577
O         11.96101        29.53879        -1.16928
O          8.77858        19.52133         2.15510
O         14.94547        26.57194        -1.20116
O         10.07332        34.83423        -2.07604
O          4.37341         8.00986         1.47946
O         14.02841        18.87932        -1.90524
O         11.92885        21.47504        -1.68976
H         12.68638        21.90227        -2.14397
O          4.68041        14.16287         2.13432
H          4.79048        15.09761         2.41615
O          7.21971        18.88714        -1.09767
H          6.40153        18.48637        -1.46247
O         16.11672        20.91827        -2.20350
H         15.44757        20.32298        -2.61634
O          3.57879        27.47747        -1.86263
H          4.39650        27.86822        -2.23973
O         12.96961         8.12122         2.48127
H         12.76236         7.18875         2.71874
O         19.28297        34.92756        -2.67538
H         19.23102        35.71401        -3.25885
O          1.36016        33.47021        -2.38859
H          1.41166        34.40073        -2.69466
O         18.87382        21.11235        -1.95592
H         19.42304        20.40351        -2.36885
O         11.53504         5.61124         2.18187
H         10.90437         6.00183         2.83013
O          6.67132        36.26625         1.61544
H          5.83822        36.33118         2.14164
O          2.21634         5.48142         1.80694
H          3.05732         5.18326         2.21465
O          6.24163        18.69543         2.46023
H          7.09141        19.07727         2.79536
O         17.58966        23.19561        -1.65110
H         17.13819        22.53296        -2.22627
O          2.64777        18.70279        -1.68870
H          1.86572        18.29743        -2.12223
O         14.66411        31.88472         2.47102
H         14.15392        31.17571         2.92748
O          6.10852        11.85621         2.19013
H          5.68957        12.68957         2.52132
O          8.31352        36.69525        -2.40448
H          8.64799        35.89740        -2.88083
O         17.13416        20.96149         1.29245
H         17.75808        21.52260         1.82513
O         12.20205        13.90988        -1.86771
H         11.40969        13.35860        -2.04517
O         17.43040         9.31140         1.51126
H         17.46188        10.10696         2.08324
O         16.32345        36.32242         1.57054
H         17.13396        36.85368         1.72248
O         10.09770        22.83923         2.48921
H          9.23925        22.52779         2.87285
O          6.18311         7.71405        -1.71434
H          6.95187         7.20997        -2.05509
O         16.94522        33.70827        -2.01339
H         17.75263        34.01596        -2.50255
H          1.21995         2.20181        -0.42481
H         -0.84539         3.49848        -0.86446
H         -0.81773         5.96405        -0.94679
H         -0.95845         7.86574        -0.28978
H         -0.97635        10.28371        -0.48776
H         -0.96975        12.23932        -0.61716
H         -0.95403        14.64098        -0.37370
H         -0.95913        16.55639        -0.41641
H         -0.98561        18.93496         0.00562
H         -0.98300        20.77600         0.55190
H         -0.99782        23.18988         0.70144
H         -1.06103        25.10682         0.43821
H         -1.04229        27.50857         0.18140
H         -1.02217        29.39020        -0.33142
H         -1.01048        31.80765        -0.66867
H         -1.06178        33.77567        -0.76152
H         -1.00083        36.21450        -0.58488
H          0.31680        38.33789        -0.74834
H          3.68271         2.21712        -0.11390
H          2.46872        39.55833        -0.62197
H          6.10933         2.23796         0.39941
H          4.92326        39.54068        -0.43233
H          8.55935         2.24724         0.50916
H          7.36304        39.60077        -0.11493
H         11.00942         2.27575         0.11025
H          9.84560        39.53098         0.11864
H         13.46459         2.36025        -0.58324
H         12.32016        39.56897        -0.07457
H         15.78087         2.42788        -1.34028
H         14.78498        39.56316        -0.37609
H         18.20080         2.40969        -1.72878
H         17.24594        39.52054        -0.68606
H         20.38073         3.58267        -1.68532
H         21.69585         5.62506        -1.23536
H         21.83185         8.02841        -0.71669
H         21.87371         9.99887        -0.74806
H         21.91697        12.42239        -0.45858
H         21.89717        14.25300         0.30631
H         21.90595        16.69648         0.41083
H         21.88135        18.59184         0.67557
H         21.78584        20.98752         1.02379
H         21.98083        23.00058         0.60979
H         21.92039        25.38925         0.92018
H         21.93685        27.22418         1.30406
H         21.84224        29.56363         2.08789
H         21.78971        32.49002         1.62680
H         21.77404        34.37763        -0.02130
H         21.73601        35.68707        -1.68440
H         21.77478        38.11753        -1.41185
H         19.70718        39.41945        -0.94695
