         280
 CSIRO Nanostructure Databank - Neutral Graphene Oxide Data Set
C         30.47884        31.66326         1.85468
C         30.43963        32.77766         1.32244
C         30.27293        35.89204         0.40162
C         30.32051        37.13367         0.22213
C         30.15876        40.46454         0.07047
C         30.13203        41.69378        -0.02075
C         32.87892        28.78716         1.78953
C         31.81825        29.40560         1.97399
C         32.95383        31.60221         1.76045
C         31.63687        30.83555         2.18214
C         32.87216        33.06841         1.39903
C         31.50949        33.76677         1.16709
C         32.68311        35.91256         0.64809
C         31.47129        34.98428         0.25607
C         32.61746        37.43461         0.55126
C         31.32949        38.10668         0.22073
C         32.57214        40.33912        -0.15352
C         31.28224        39.52934        -0.11392
C         32.53412        41.85199         0.00638
C         31.22493        42.57917        -0.57114
C         32.49607        44.59151        -0.12184
C         31.41162        44.00482        -0.12777
C         35.41916        27.12489         0.58904
C         35.10703        28.53889         0.37695
C         33.99393        29.30867         0.97454
C         35.29690        31.50038         0.52583
C         34.16396        30.80978         1.25192
C         35.23058        32.96328         0.31486
C         34.13828        33.74397         0.91230
C         35.12400        35.93152        -0.20215
C         34.04842        35.23572         0.62496
C         35.20444        37.42274         0.19677
C         33.92685        38.19083         0.39561
C         35.18956        40.43311         0.04569
C         33.91004        39.65063        -0.01760
C         35.16530        41.88310         0.60768
C         33.82278        42.61126         0.28815
C         35.13810        44.83160        -0.31117
C         33.86692        44.07565        -0.16107
C         35.36717        46.27818        -0.42944
C         37.76850        26.86025        -0.26631
C         36.46806        26.52014         0.39874
C         37.62034        28.42255        -0.56807
C         36.36001        29.19726        -0.21652
C         37.57965        31.44208        -0.73118
C         36.32866        30.72225        -0.28709
C         37.61575        32.99358        -0.76249
C         36.48159        33.68785        -0.00089
C         37.68698        35.93070        -0.63569
C         36.46691        35.19448        -0.12509
C         37.68862        37.43921        -0.47628
C         36.42690        38.19832        -0.21614
C         37.76745        40.39174         0.13164
C         36.46885        39.64814         0.24167
C         37.77345        41.91467         0.06655
C         36.49278        42.68330         0.31184
C         37.74677        44.90388        -0.39076
C         36.47905        44.18582         0.01685
C         37.72933        46.32540        -1.09861
C         36.43073        46.88005        -0.58574
C         40.17434        24.61135         1.45251
C         39.15576        25.21978         1.12410
C         40.29142        27.04868         0.02965
C         38.94074        26.62753         0.68142
C         40.28460        28.41499        -0.63052
C         38.92973        29.13703        -1.10964
C         40.20328        31.45534        -0.87717
C         38.89741        30.70085        -0.99490
C         40.22900        32.92452        -0.50044
C         38.94135        33.66475        -0.40270
C         40.21219        35.89664        -0.14277
C         38.97247        35.16229        -0.64306
C         40.23847        37.32763        -0.66120
C         39.01387        38.11993        -0.27290
C         40.27566        40.34253        -0.62929
C         39.04627        39.61513        -0.16748
C         40.25418        41.84985        -0.71016
C         38.95651        42.59779        -0.57971
C         40.34384        44.83037        -0.70524
C         39.00483        44.11630        -0.66346
C         40.36441        46.34911        -0.58226
C         39.02134        47.08926        -0.78481
C         40.13048        49.01783         0.25709
C         39.13922        48.41269        -0.16158
C         42.79753        24.68214         1.80023
C         41.55674        24.90556         1.06368
C         42.86555        27.13746         0.46570
C         41.58506        26.32964         0.44442
C         42.84937        28.53519        -0.08112
C         41.59196        29.20085        -0.64692
C         42.71829        31.54561        -0.31209
C         41.53193        30.70744        -0.74046
C         42.73597        33.00831        -0.59095
C         41.44611        33.71830        -0.99969
C         42.82368        35.87874        -0.54938
C         41.52503        35.13820        -0.40291
C         42.84720        37.36553        -0.72075
C         41.52834        38.06661        -0.74341
C         42.76472        40.24352        -0.07217
C         41.55929        39.57766        -0.68393
C         42.57306        41.73064         0.32596
C         41.59793        42.53916        -0.55919
C         42.61378        44.67348         0.50211
C         41.61887        44.04147        -0.44425
C         42.58423        46.15995         0.73480
C         41.57131        47.03365         0.01936
C         42.57926        48.87405         1.31919
C         41.51168        48.56785         0.36820
C         43.84675        25.33674         1.74461
C         45.35042        27.35241         1.11178
C         43.99018        26.81648         1.55557
C         45.36299        28.71707         0.46698
C         44.02520        29.40806         0.31004
C         45.34652        31.57868        -0.23947
C         44.02531        30.86553         0.00614
C         45.32981        32.92872        -0.92874
C         44.02838        33.68594        -0.97794
C         45.37324        35.94381        -1.03268
C         44.05814        35.18025        -1.04775
C         45.33706        37.21395        -0.16103
C         44.13923        38.09255        -0.54502
C         45.35441        40.28325         0.06268
C         44.07052        39.50324        -0.01183
C         45.26102        41.76553         0.24502
C         43.93055        42.43667         0.57819
C         45.16555        44.70193         0.45479
C         43.91620        43.92697         0.75127
C         45.17048        46.11135         1.03389
C         43.86663        46.79365         1.31217
C         43.62525        48.23496         1.49202
C         47.59310        27.16082         0.24043
C         46.55179        26.62734         0.64603
C         47.84037        28.45509        -0.41375
C         46.56215        29.27497        -0.28592
C         47.87610        31.42752        -0.92799
C         46.62926        30.78539        -0.29557
C         47.86017        32.94986        -0.62869
C         46.63500        33.66845        -1.14127
C         47.98503        35.94151        -0.86387
C         46.66776        35.18543        -1.15543
C         47.95543        37.39498        -0.41695
C         46.65529        38.03546         0.01545
C         47.93715        40.37393         0.59872
C         46.64298        39.53038         0.32819
C         47.85914        41.88886         0.27874
C         46.50823        42.57019         0.63730
C         48.26754        45.03114         0.47695
C         46.29479        43.99657         0.11263
C         47.67558        46.22109         1.02574
C         46.52452        46.66542         1.05858
C         50.48086        28.71137        -0.68961
C         49.13860        29.20501        -0.33090
C         50.42785        31.48988        -0.75093
C         49.14853        30.71712        -0.45629
C         50.37831        32.87036        -0.11878
C         49.11972        33.69500        -0.32224
C         50.34404        35.86758         0.12526
C         49.31602        35.15038        -0.78375
C         50.55444        37.39673        -0.06506
C         49.23475        38.20238        -0.18841
C         50.50241        40.40045         0.47174
C         49.21227        39.69630         0.06920
C         50.45665        41.87832         0.80576
C         49.15557        42.64848         0.52217
C         50.12726        44.32931         1.97395
C         49.11378        44.10309         1.00014
C         51.54537        29.33937        -0.75730
C         52.82929        31.63986        -0.44170
C         51.77447        30.77136        -0.96395
C         52.80225        32.83205        -0.10220
C         51.61751        33.57131         0.38299
C         52.62573        35.91526         1.03538
C         51.50508        35.03894         0.65756
C         52.55393        37.11875         1.28054
C         51.37486        38.03279         1.16860
C         52.49490        40.26094         1.88392
C         51.63981        39.50220         0.97577
C         52.42119        41.42241         2.29060
C         51.54896        42.47380         1.78592
C         51.02566        43.64877         2.49733
O         34.52581        34.80021         1.89711
O         51.64283        40.00361        -0.36614
O         33.94673        28.92194        -0.41151
O         39.98084        46.98095        -1.84983
O         39.56129        31.27767        -2.16261
O         45.98771        32.98314        -2.24256
O         42.41329        35.33087         0.73498
O         36.87327        34.56495         1.12591
O         31.93802        39.86687        -1.38505
O         51.03110        31.34263        -2.06266
O         47.36939        44.59575        -0.53617
O         37.47214        42.46312         1.37408
O         35.39434        31.09347         1.97695
O         32.49726        36.69959         1.83123
O         36.49683        31.10176        -1.66329
O         46.96419        28.67371        -1.54754
O         46.60083        38.53196         1.39114
O         46.03177        35.84284        -2.29518
O         43.94301        43.03990         1.91453
O         40.79904        37.57238        -1.94654
O         43.20407        39.53975         1.15691
O         48.62710        42.39062        -0.81915
O         46.22778        31.46653         0.91380
O         43.86032        34.39642        -2.25061
O         41.95040        45.23365         1.66907
O         50.33696        35.37456         1.48735
O         38.35530        35.57643        -1.88468
O         39.38843        42.09328        -1.86540
O         49.14835        30.08195         0.83951
O         43.84755        30.35558         1.38353
O         39.66335        33.25601         0.79908
O         39.64519        44.48433        -1.91552
O         43.36360        27.40738        -0.86437
O         50.79788        32.79315         1.28096
O         37.28977        44.92841         0.98071
O         34.51463        44.20638        -1.46125
O         34.65559        40.04598        -1.24264
O         44.49626        46.03354         2.33986
O         41.85932        29.89336        -1.89935
O         36.56783        28.60806        -1.53923
O         32.85255        42.32862         1.32763
O         48.03706        37.02289        -1.82542
O         51.64190        42.62329         0.37294
O         40.32653        27.17441        -1.40540
O         40.95434        40.03397        -1.91147
O         49.26664        39.20133        -1.27553
O         45.71538        28.52321         1.88139
O         36.88956        38.02618        -1.57793
O         45.40805        41.20172        -1.08328
O         37.21288        39.95049         1.42532
O         42.16982        43.34810        -1.60448
O         34.80714        37.85729         1.51616
O         48.15209        33.42135         0.72115
O         32.53197        31.36206         3.14804
O         42.53318        32.52889         0.76331
O         32.21194        33.90555         2.39782
O         39.29453        38.75627         1.00150
O         43.65487        37.82015        -1.87214
O         42.08025        48.08813        -0.85539
O         41.73528        25.08101        -0.33064
O         43.58200        27.48377         2.72914
H         44.30959        28.08200         3.02688
O         41.84133        41.69072         1.56016
H         42.34335        41.15310         2.21244
O         34.69592        35.91633        -1.57736
H         35.40306        36.30928        -2.13832
O         37.37790        33.32495        -2.14449
H         37.93461        32.74266        -2.70880
O         37.94396        26.18857        -1.47849
H         37.19065        26.41429        -2.06547
O         48.12939        40.39394         2.03015
H         47.83863        39.53337         2.41025
O         47.90619        31.22672        -2.34177
H         47.16142        31.71564        -2.76744
O         45.04563        36.62605         1.12210
H         45.15733        37.30625         1.82492
O         38.77456        27.48847         1.81579
H         38.07517        27.11800         2.39597
O         38.90052        28.92149        -2.51168
H         39.12180        27.97958        -2.68769
O         50.57976        37.91152         2.33399
H         50.51284        36.94973         2.55890
O         31.61520        34.51415        -1.06996
H         31.43701        35.23488        -1.70917
O         41.27233        33.80486        -2.41141
H         42.10513        34.14161        -2.82331
O         40.04443        36.02183         1.27805
H         40.09777        35.12410         1.67917
O         35.12816        41.70159         2.02436
H         36.03744        41.46734         2.33044
O         51.28024        37.50685        -1.27652
H         51.30248        38.46046        -1.53767
O         49.85881        35.05533        -2.10160
H         49.86260        35.95537        -2.50061
O         37.62159        46.14061        -2.48527
H         38.48585        46.34948        -2.90930
O         31.22955        42.50171        -1.95681
H         30.41645        42.90126        -2.32596
O         46.57350        42.69819         2.07013
H         45.68611        42.97742         2.41264
