         344
 CSIRO Nanostructure Databank - Neutral Graphene Oxide Data Set
C          1.10178         3.68877        -1.18408
C         -0.07204         4.38272        -0.99479
C          1.09164         6.47103        -0.40936
C         -0.08648         5.76045        -0.64825
C          1.11286         7.84571        -0.03739
C         -0.04835         8.58152         0.29671
C          1.24698        10.51731         1.11452
C          0.00333         9.87832         0.79345
C          1.31527        11.78094         1.83103
C          0.16281        12.65124         2.00610
C          1.32230        14.90528         2.15926
C          0.17350        14.01815         2.12544
C          1.18685        16.36619         1.87916
C          0.05128        16.95187         1.14997
C          1.24683        19.08776         0.77242
C          0.07124        18.23463         0.69764
C          1.22185        20.47850         0.29003
C          0.05738        21.17459         0.05890
C          1.20250        23.22091        -0.68330
C          0.05946        22.54973        -0.37775
C          1.24220        24.60180        -1.32609
C         -0.00181        25.44121        -1.19143
C          1.29324        27.50892        -1.40810
C          0.04397        26.78890        -1.34072
C          1.34875        28.91393        -1.74856
C          3.54040         3.73243        -1.39830
C          2.37771         4.34308        -1.03074
C          3.64564         6.46353        -0.48707
C          2.37804         5.66877        -0.29991
C          3.66087         7.82316        -0.12956
C          2.39233         8.64058        -0.15003
C          3.70455        10.41960         1.04705
C          2.44100         9.84689         0.76157
C          3.78074        11.58523         1.86475
C          2.56774        12.18932         2.29773
C          3.80450        15.17345         2.32651
C          2.56323        14.46370         2.58495
C          3.76713        16.50651         1.87355
C          2.47454        17.20875         1.82658
C          3.69255        19.35525         1.35484
C          2.43493        18.54232         1.20452
C          3.67131        20.61970         0.54046
C          2.49260        21.16365         0.10131
C          3.62564        23.38414        -0.04568
C          2.53337        22.48899        -0.64463
C          3.69014        24.75400        -0.67732
C          2.50048        25.39010        -0.98795
C          3.73179        27.53441        -1.08601
C          2.49515        26.81461        -1.15885
C          3.65501        29.02737        -0.86992
C          2.49183        29.63572        -1.61188
C          6.08019         3.64471        -1.17165
C          4.85290         4.45983        -1.47612
C          6.09157         6.43346        -0.54606
C          4.84645         5.79008        -0.76764
C          6.10251         7.77545        -0.10614
C          4.89856         8.47753         0.07242
C          6.13532        10.55181         0.70776
C          4.92983         9.83103         0.60949
C          6.15851        11.86743         1.28015
C          5.04041        12.21933         2.03407
C          6.21408        15.01533         1.70365
C          5.05118        14.49500         2.30744
C          6.19600        16.41539         1.40091
C          4.97059        17.15688         1.47606
C          6.15870        19.20231         0.84684
C          4.95856        18.54290         1.15091
C          6.15992        20.61195         0.54021
C          4.94044        21.31012         0.35949
C          6.16506        23.38214        -0.11928
C          4.95052        22.67108         0.00951
C          6.15932        24.75899        -0.54104
C          4.95227        25.44665        -0.78348
C          6.17744        27.61353        -1.53786
C          4.94156        26.86293        -1.05399
C          6.17393        29.08794        -1.11735
C          4.97360        29.73759        -0.98075
C          8.54982         3.56895        -0.94859
C          7.30186         4.27949        -0.93248
C          8.57461         6.36866        -0.51203
C          7.32920         5.69674        -0.66220
C          8.61121         7.76739        -0.25128
C          7.38820         8.40827         0.33710
C          8.53600        10.62444         0.17029
C          7.37619         9.91635         0.30001
C          8.51252        12.09819         0.37268
C          7.30546        12.77562         0.99790
C          8.59372        14.92288         1.15675
C          7.40470        14.22802         1.42000
C          8.63759        16.35275         1.05023
C          7.41100        17.08561         1.08809
C          8.63090        19.18742         0.69498
C          7.40044        18.49000         0.85982
C          8.63089        20.60313         0.53531
C          7.39294        21.30802         0.41071
C          8.63986        23.42175         0.18671
C          7.39725        22.70088         0.12729
C          8.65733        24.82097        -0.10621
C          7.46797        25.41314        -0.73524
C          8.65022        27.68939        -0.78021
C          7.49656        26.90204        -1.17629
C          8.63003        29.10506        -0.80171
C          7.41622        29.78640        -1.03139
C         11.02094         3.52813        -0.89011
C          9.78035         4.23210        -0.88896
C         11.01267         6.39587        -0.74349
C          9.80265         5.67924        -0.74328
C         11.02658         7.79995        -0.57923
C          9.80191         8.48249        -0.35478
C         11.03967        10.71578        -0.46766
C          9.70434         9.97551        -0.56842
C         11.07093        12.14364         0.00812
C          9.84134        12.74737         0.60235
C         11.12606        14.93020         0.72398
C          9.87559        14.19297         0.99849
C         11.11050        16.33251         0.66772
C          9.86483        17.04853         0.81019
C         11.09102        19.18125         0.47919
C          9.86304        18.46554         0.68635
C         11.09796        20.60606         0.46631
C          9.86515        21.32161         0.50996
C         11.08094        23.52636         0.80184
C          9.84358        22.74208         0.46379
C         11.09142        24.91172         0.20931
C          9.88638        25.53272        -0.11514
C         11.15527        27.66303        -0.69293
C          9.86474        27.04335        -0.15834
C         11.10081        29.17301        -0.51792
C          9.88066        29.81835        -0.61738
C         13.47384         3.51342        -0.76771
C         12.25859         4.19427        -0.87711
C         13.48081         6.32106        -0.37083
C         12.29979         5.69289        -1.10591
C         13.50386         7.82415        -0.50573
C         12.29335         8.53362        -0.53016
C         13.52367        10.64761        -0.21509
C         12.30889         9.95659        -0.41784
C         13.55765        12.07022         0.08970
C         12.35716        12.79122         0.33411
C         13.56480        14.93299         0.41764
C         12.34231        14.20243         0.54696
C         13.56110        16.31370         0.24504
C         12.32343        17.05309         0.36699
C         13.45591        19.21984        -0.31737
C         12.29834        18.45201         0.27459
C         13.53715        20.62652         0.24446
C         12.35999        21.32923         0.45022
C         13.54674        23.49755         0.64147
C         12.37907        22.77808         0.61207
C         13.55414        25.00183         0.84184
C         12.31945        25.67010         0.26085
C         13.54920        27.82260         0.37257
C         12.35392        27.00537        -0.04640
C         13.55026        29.23188        -0.17754
C         12.33512        29.87702        -0.42383
C         15.92941         3.47446        -0.84505
C         14.74532         4.18664        -0.80380
C         15.95966         6.35423        -0.79117
C         14.77471         5.64637        -0.75075
C         15.97791         7.79219        -0.54943
C         14.74469         8.51134        -0.43519
C         16.01213        10.61282        -0.18290
C         14.76049         9.92885        -0.27091
C         16.02667        12.04593         0.00876
C         14.80739        12.72787         0.18820
C         16.01563        14.86352        -0.15498
C         14.86591        14.18782         0.58075
C         16.03057        16.35783         0.03583
C         14.81563        17.02218         0.01535
C         16.10297        19.19553        -0.17581
C         14.78512        18.46332        -0.29067
C         16.09852        20.63647         0.14710
C         14.82371        21.27692         0.48215
C         16.08915        23.50469         0.39648
C         14.83867        22.79799         0.72475
C         16.01980        24.92207         0.18066
C         14.84068        25.65495         0.35210
C         16.03748        27.78803        -0.03938
C         14.83796        27.06418         0.15319
C         16.01412        29.23344        -0.16253
C         14.77852        29.91139        -0.26933
C         18.46692         3.43814        -0.74491
C         17.22067         4.16539        -1.18032
C         18.39816         6.28765        -0.56675
C         17.22835         5.63554        -0.81922
C         18.49259         7.77690        -0.78895
C         17.19635         8.49226        -0.48387
C         18.53973        10.61062        -0.41923
C         17.21664         9.88866        -0.30532
C         18.51591        12.02022         0.12705
C         17.27822        12.74181         0.12767
C         18.49164        14.86964         0.39404
C         17.30578        14.16596         0.19289
C         18.54265        16.29578         0.27343
C         17.30199        17.05135         0.07108
C         18.61798        19.20715        -0.05522
C         17.33136        18.43164         0.07856
C         18.54595        20.56756         0.64341
C         17.28018        21.33617         0.31690
C         18.57334        23.44439        -0.11740
C         17.28091        22.77257         0.31560
C         18.51431        24.93801         0.27396
C         17.27111        25.61536        -0.31493
C         18.49608        27.80172        -0.19256
C         17.28239        27.10505        -0.09889
C         18.46966        29.24326        -0.28426
C         17.24098        29.92204        -0.28643
C         19.55694         4.06991        -0.29312
C         20.86934         6.24776        -0.14052
C         19.55812         5.53830         0.04446
C         20.91528         7.59886        -0.11523
C         19.71671         8.41843        -0.16926
C         20.86967        10.48962         0.54763
C         19.72421         9.78460         0.05011
C         20.87386        11.85521         0.70958
C         19.69828        12.64572         0.50485
C         20.97513        14.84446         0.62839
C         19.69245        14.10887         0.92180
C         20.99213        16.18595         0.46903
C         19.77746        16.98098         0.38285
C         20.99607        19.15198         0.59732
C         19.84180        18.41668         0.36116
C         21.00947        20.57542         0.56744
C         19.84963        21.33423         0.49753
C         20.97482        23.55355         0.47352
C         19.83588        22.76949         0.40075
C         20.97167        24.95388         0.18930
C         19.80912        25.67156        -0.00652
C         20.93457        27.86039        -0.38091
C         19.76963        27.10913        -0.21262
C         20.89588        29.26754        -0.49436
C         19.69996        29.95143        -0.43158
O         11.02035        11.83989        -1.43128
O          7.81632        25.82291        -2.10194
O          2.64723        13.22453         3.24745
O          1.64687        17.14653         3.04073
O          6.03201        27.62121        -2.92431
O         14.91153        21.87174         1.84591
O         15.54565        18.81858        -1.50737
O         10.05061        13.10661         2.00250
O          7.57374        12.79908        -0.48745
O          5.12565        13.26515         2.95683
O         13.26430         6.04396         1.04810
H         14.01583         6.42535         1.54820
O          3.21890        23.61761         1.33911
H          3.95558        24.06731         1.80270
O          9.79508        27.43527         1.25295
H          9.10510        26.89467         1.69106
O          4.99578         4.79304        -2.92206
H          5.80106         5.34660        -3.01423
O         17.26569         4.14320        -2.65597
H         16.56923         4.75487        -2.97774
O         19.55944        14.09182         2.38727
H         19.45387        15.02216         2.67957
O         18.75364        10.76029        -1.88356
H         19.60096        11.24107        -2.00275
O          2.92544        22.21408        -2.02445
H          2.30170        21.54945        -2.38565
O         18.68202        23.26809        -1.54929
H         18.05934        23.89614        -1.98754
O         18.41348        20.27467         2.06880
H         18.17150        21.10411         2.53219
O         13.08244        19.37776        -1.72347
H         13.92627        19.39605        -2.23493
O         15.77234        14.65191        -1.57632
H         16.42725        15.17739        -2.08105
O          1.36567        24.33938        -2.76867
H          2.17567        23.78400        -2.88119
O          7.49073         8.09290         1.78149
H          6.62349         8.30231         2.19023
O         18.32908        24.99785         1.71360
H         19.16603        24.71490         2.13813
O         15.18184        14.24048         2.00394
H         14.44931        13.81164         2.49398
O         11.01251        23.77164         2.27962
H         11.00906        22.89097         2.71450
O         13.48606        25.22499         2.28980
H         12.63693        24.80806         2.58739
O         12.52695         5.91106        -2.52509
H         11.75858         5.55049        -3.01461
O         13.42736        27.99469         1.82497
H         13.46699        27.08774         2.22756
O         18.68841         7.94100        -2.23822
H         18.68408         8.91696        -2.40953
O          2.35503         9.19911        -1.52551
H          1.54766         9.75337        -1.58724
O          3.72234        19.77985         2.76491
H          3.36850        19.04178         3.30689
O         11.25960        27.40274        -2.11535
H         10.42856        27.70385        -2.54169
O          2.42376         5.29525         1.12947
H          1.64001         4.73094         1.30296
O         18.75385        19.48459        -1.47759
H         18.65755        18.64202        -1.96769
O         19.30149         5.60642         1.49896
H         18.49656         5.07557         1.67900
O         17.28602        25.47161        -1.77842
H         16.50170        25.94349        -2.13083
O          3.30570        29.17848         0.56601
H          2.39947        28.82049         0.68338
O          9.30076        10.05481        -1.97062
H          9.59676        10.93599        -2.30155
H          1.07842         2.64872        -1.54147
H         -1.03319         3.87806        -1.16845
H         -1.05665         6.27710        -0.62933
H         -1.03309         8.09526         0.23164
H         -0.94054        10.37520         1.05578
H         -0.82928        12.18491         1.90270
H         -0.81096        14.51320         2.11202
H         -0.82661        16.32013         0.94824
H         -0.81871        18.62410         0.18193
H         -0.91748        20.69868         0.23438
H         -0.91866        23.04565        -0.46431
H         -0.97820        24.93939        -1.12732
H         -0.89037        27.37081        -1.36928
H          0.44442        29.38019        -2.16886
H          3.50040         2.72501        -1.84365
H          2.52729        30.69485        -1.90597
H          6.06831         2.56837        -1.40250
H          4.97646        30.79613        -0.66879
H          8.53229         2.47541        -1.06842
H          7.42231        30.88471        -1.11166
H         11.00335         2.42785        -0.84604
H          9.84513        30.91791        -0.57456
H         13.47040         2.41462        -0.69246
H         12.33400        30.96795        -0.58305
H         15.90125         2.37400        -0.87378
H         14.78238        30.98486        -0.51498
H         18.49422         2.35135        -0.92282
H         17.23157        31.01617        -0.40283
H         20.46002         3.49393        -0.03432
H         21.79780         5.65744        -0.14911
H         21.89399         8.10371        -0.11490
H         21.76395         9.91762         0.83236
H         21.78024        12.33665         1.10128
H         21.92769        14.29647         0.66790
H         21.95823        16.69681         0.34596
H         21.95011        18.64042         0.79247
H         21.99051        21.07301         0.59197
H         21.94068        23.09493         0.73259
H         21.94875        25.45646         0.14176
H         21.91255        27.36094        -0.41581
H         21.83842        29.81863        -0.62045
H         19.67943        31.04819        -0.50567
