         720
 CSIRO Nanostructure Databank - Neutral Graphene Oxide Data Set
C         23.00412        27.76670        -1.40066
C         22.97163        29.11722        -1.20218
C         22.98766        32.07652        -0.94041
C         23.01091        33.44808        -0.82930
C         23.10675        36.49941        -0.49897
C         23.21816        37.81907        -0.80015
C         23.74458        40.03072        -2.86771
C         23.94163        41.16842        -3.54595
C         24.11844        44.10495        -4.27051
C         24.06642        45.44596        -4.11282
C         25.48055        24.91021        -1.29370
C         24.27260        25.64807        -1.47021
C         25.45153        27.76300        -1.05778
C         24.24106        27.03556        -1.33725
C         25.41470        29.12938        -0.80047
C         24.16302        29.86591        -0.89749
C         25.45769        31.99066        -0.57118
C         24.14407        31.26277        -0.73395
C         25.33499        33.40623        -0.04469
C         24.16745        34.16393        -0.35016
C         25.30932        36.10993         0.51955
C         24.15438        35.56762        -0.06812
C         25.58118        38.25847        -0.03279
C         24.37626        38.81637        -0.73625
C         26.13426        40.10856        -2.01892
C         24.83992        39.30258        -2.13435
C         26.32776        41.30763        -2.72326
C         25.25187        41.85299        -3.56703
C         26.49120        44.09658        -3.39135
C         25.33385        43.35311        -3.92445
C         26.40645        45.53023        -3.26749
C         25.19436        46.19563        -3.59542
C         26.14253        48.30354        -2.84689
C         25.07806        47.57973        -3.38918
C         28.08985        23.37856        -1.42952
C         27.95053        24.76003        -0.89359
C         26.68294        25.53039        -1.07602
C         27.88807        27.66447        -0.40278
C         26.77054        27.03998        -1.20384
C         27.81680        29.02485        -0.02444
C         26.59823        29.80995        -0.27102
C         27.59649        31.73050         0.97060
C         26.53152        31.14093         0.06332
C         27.63251        33.25777         0.96798
C         26.49900        34.03579         0.41125
C         27.83802        36.16963         0.46495
C         26.53214        35.44460         0.59127
C         27.98630        37.68150         0.30136
C         26.88634        38.45188        -0.36715
C         28.49738        40.15138        -1.30390
C         27.19527        39.57009        -1.25688
C         28.68019        41.36425        -1.99894
C         27.57304        42.00156        -2.63056
C         28.87616        44.17682        -2.75531
C         27.62917        43.40139        -2.98500
C         28.71609        45.60260        -2.39794
C         27.49796        46.27422        -2.69841
C         28.40096        48.56182        -1.84507
C         27.34450        47.68288        -2.49987
C         28.74139        49.78498        -2.66434
C         30.57852        23.62069        -1.74822
C         29.28597        22.83495        -1.69033
C         30.55903        24.90029        -0.86120
C         29.21426        25.51010        -0.60747
C         30.24252        27.62970         0.18961
C         29.10243        26.96497        -0.29943
C         30.17476        28.97841         0.61174
C         28.97154        29.67694         0.48258
C         30.12447        31.81020         1.32330
C         28.97358        31.18693         0.54622
C         30.15130        33.14904         1.49276
C         28.92506        33.95774         1.23426
C         30.39255        36.02325         0.84172
C         29.07478        35.35954         0.71865
C         30.54215        37.28787         0.34599
C         29.38540        38.19987         0.10189
C         30.90503        39.96120        -0.81464
C         29.63712        39.46358        -0.67235
C         31.17950        41.27786        -1.45497
C         30.07407        41.88082        -2.32634
C         31.32296        44.20528        -1.84617
C         30.15191        43.43052        -2.42900
C         31.14691        45.70698        -1.58523
C         29.77764        46.29434        -1.68883
C         30.91372        48.54461        -1.27675
C         29.66301        47.81462        -1.44097
C         31.02063        49.86595        -1.72970
C         29.92350        50.41361        -2.53079
C         33.08774        20.75038        -2.58086
C         31.95178        21.52336        -2.59717
C         32.93495        23.00333        -1.02972
C         31.81917        22.70213        -1.76827
C         32.96036        25.05150        -0.25520
C         31.66689        25.67640        -0.52553
C         32.62735        27.91703        -0.00328
C         31.53863        27.05336        -0.06789
C         32.71305        29.03251         0.88302
C         31.38279        29.58638         1.23857
C         32.61880        31.71305         1.85386
C         31.32778        31.02235         1.67868
C         32.65487        33.08459         2.01067
C         31.33687        33.88635         2.07601
C         32.68884        35.99874         1.85630
C         31.58413        35.14616         1.20240
C         32.95823        37.22687         1.02155
C         31.90295        37.85225         0.19009
C         32.93967        40.12735         0.64403
C         32.16574        39.25216        -0.36066
C         33.15581        41.54039         0.24217
C         32.33801        42.08634        -0.87833
C         33.37196        44.28982        -0.43528
C         32.36440        43.55465        -1.02976
C         33.33310        45.74420        -0.43205
C         32.14813        46.40587        -0.77217
C         33.30311        48.57185        -0.46649
C         31.97497        47.87414        -0.43445
C         33.43955        49.96277        -1.03215
C         32.15537        50.65655        -1.38906
C         33.23631        52.80854        -0.95337
C         32.16571        52.06682        -1.43583
C         35.66198        19.12299        -2.12738
C         35.59126        20.49265        -1.82392
C         34.38157        21.28648        -2.11280
C         35.46919        23.26191        -0.63121
C         34.29844        22.63674        -1.36759
C         35.43572        24.63665        -0.05020
C         34.24396        25.51253        -0.17434
C         35.35798        27.43379         0.88570
C         34.54297        26.92089        -0.08589
C         35.22857        28.83839         1.32478
C         33.92243        29.53610         1.37428
C         35.11098        31.58739         2.41253
C         33.83203        30.86832         2.04917
C         35.17018        33.05480         2.17690
C         33.91942        33.77589         2.04116
C         35.18231        35.86481         1.78814
C         33.97318        35.19756         1.93961
C         35.24642        37.31089         1.79026
C         34.11929        38.01923         1.45477
C         35.13714        40.25421         2.10198
C         33.98539        39.47769         1.51713
C         34.83850        41.80627         2.09605
C         34.12356        42.29649         0.85074
C         35.52908        44.35236         0.80848
C         34.39256        43.66048         0.40669
C         35.78595        45.74946         0.27327
C         34.47671        46.47164         0.01623
C         35.71817        48.66600         0.16296
C         34.45237        47.88204        -0.10219
C         35.30586        50.05497         0.67655
C         34.39801        50.81262        -0.24288
C         35.56551        53.00271         0.11298
C         34.33191        52.18676        -0.26276
C         35.39598        54.43842         0.53987
C         38.08715        19.01036        -1.64053
C         36.80052        18.36044        -1.90854
C         38.02946        20.45705        -1.15599
C         36.67946        21.05566        -0.97072
C         37.86677        23.08756         0.19349
C         36.61759        22.38233        -0.25525
C         37.81300        24.38632         0.78494
C         36.49167        25.08556         0.92529
C         37.63052        27.14388         2.02369
C         36.39040        26.49772         1.45923
C         37.63096        28.65229         2.11533
C         36.36987        29.42054         1.85039
C         37.70569        31.53413         2.36885
C         36.39080        30.80798         2.35476
C         37.70095        33.06400         2.43326
C         36.38834        33.68649         1.98721
C         37.67782        35.87550         1.40371
C         36.37618        35.06659         1.35330
C         37.66758        37.32726         1.74953
C         36.50796        38.01370         1.98210
C         37.76747        40.13883         2.47120
C         36.44299        39.47110         2.35797
C         37.90516        41.44807         2.87132
C         36.06705        42.62735         2.38507
C         37.87029        44.41668         1.88618
C         36.47692        43.76247         1.74750
C         37.70446        45.94180         2.02438
C         36.72156        46.57139         1.14423
C         37.35984        48.70587         2.22108
C         36.61439        47.93402         1.14337
C         37.21722        50.16848         2.09340
C         36.46914        50.85148         1.20684
C         37.89858        52.96434         1.03178
C         36.47392        52.36604         1.21942
C         37.82149        54.47820         0.94539
C         36.52577        55.11805         0.87262
C         40.56715        16.16794        -1.48311
C         39.37996        16.86743        -1.64186
C         40.44936        18.90955        -0.80930
C         39.31492        18.23957        -1.34483
C         40.37306        20.32513        -0.45562
C         39.19499        21.04805        -0.46300
C         40.29512        23.11700         0.40662
C         39.11057        22.42179         0.05351
C         40.24416        24.41068         0.98684
C         38.98977        25.05265         1.19317
C         40.20215        27.13776         2.19887
C         38.90093        26.26486         2.14093
C         40.23815        28.69118         2.22720
C         38.90857        29.39045         2.02998
C         40.12579        31.48538         1.63499
C         38.92392        30.77993         1.95337
C         40.11884        32.93837         1.63337
C         38.92018        33.66809         1.78382
C         40.21569        35.86242         1.86077
C         38.96352        35.12317         1.56600
C         40.21165        37.21952         1.86878
C         38.97949        38.05930         1.57260
C         40.26433        40.14861         2.16974
C         39.03503        39.31474         2.44827
C         40.24575        41.55895         2.31472
C         39.07524        42.24112         2.67022
C         40.30162        44.43954         2.60716
C         38.94482        43.75832         2.87297
C         40.47699        45.75120         2.91189
C         38.61247        46.78949         2.65287
C         40.08530        48.84005         2.42697
C         38.80229        48.20202         2.37528
C         40.20052        50.29686         2.37548
C         39.13153        51.21723         2.49816
C         40.27731        53.18874         1.66954
C         39.07051        52.52035         1.94031
C         40.27116        54.47162         1.08072
C         39.03276        55.18509         0.90119
C         40.23928        57.33256         0.69738
C         39.08085        56.63434         0.78116
C         42.96612        16.09660        -0.89925
C         41.70915        16.81564        -0.96857
C         42.81337        18.75679         0.19225
C         41.64457        18.17364        -0.58989
C         42.91162        20.26280         0.02341
C         41.65176        21.03358        -0.23715
C         42.86161        23.11536         0.66450
C         41.60547        22.49108         0.10483
C         42.70006        24.40629         1.35650
C         41.49045        25.04233         1.40953
C         42.70268        27.23766         1.53110
C         41.49155        26.44980         1.90880
C         42.51356        28.56833         0.83475
C         41.33060        29.34892         1.36873
C         42.47096        31.47416         0.75066
C         41.29326        30.73120         1.26042
C         42.50342        32.97846         0.94790
C         41.33970        33.64744         1.50288
C         42.69445        35.77110         1.44929
C         41.49231        35.04808         2.04593
C         42.73194        37.22830         1.64632
C         41.47903        37.98259         1.96801
C         42.66597        40.16102         1.60621
C         41.46657        39.46808         1.86545
C         42.74645        41.56892         1.84321
C         41.56091        42.27781         2.47148
C         42.73481        44.49059         2.19213
C         41.44146        43.72720         1.93849
C         42.73612        45.98241         2.13308
C         41.53167        46.65857         2.44264
C         42.62117        48.78552         1.96144
C         41.39435        48.08865         2.32945
C         42.71786        50.23161         1.94667
C         41.50890        50.97652         2.28546
C         42.80438        53.13725         1.61951
C         41.53555        52.51771         2.02967
C         42.80892        54.50191         1.19690
C         41.54706        55.12704         0.78909
C         42.79992        57.35589         0.79878
C         41.53665        56.65417         0.54644
C         44.12812        16.72088        -0.56750
C         45.32224        18.74795         0.20734
C         44.14886        18.08774        -0.10459
C         45.26591        20.07590         0.87966
C         44.07596        20.94583         0.64885
C         45.33592        23.00869         1.29476
C         44.06890        22.28356         0.92714
C         45.24944        24.44800         1.77045
C         43.93001        25.13677         1.76262
C         44.99638        27.15460         0.56669
C         43.89371        26.59582         1.45919
C         45.04044        28.67425         0.59156
C         43.79730        29.36261         0.72486
C         44.93846        31.48764         0.32379
C         43.77426        30.77334         0.62269
C         45.07075        32.91099         0.65513
C         43.83416        33.65243         1.06815
C         45.08799        35.82002         0.73897
C         43.83968        35.13171         1.04082
C         45.12637        37.23301         0.79717
C         43.85410        37.95492         0.99584
C         45.13612        40.13066         0.92390
C         43.82667        39.45377         1.00581
C         45.09228        41.61298         0.99209
C         43.90722        42.27545         1.58830
C         45.24504        44.48320         1.68939
C         43.98414        43.71948         1.91779
C         45.16715        45.95784         1.51464
C         43.92366        46.68190         1.82724
C         45.02295        48.79777         1.06136
C         43.83788        48.08151         1.69879
C         45.14290        50.25774         1.40710
C         43.93572        50.94718         1.74407
C         45.29327        53.12024         1.78545
C         43.97843        52.39014         1.71101
C         45.25363        54.54524         1.27036
C         44.02105        55.23044         1.09613
C         43.96518        56.67225         0.94182
C         47.80779        18.78646         0.28516
C         46.63709        18.18893        -0.05128
C         47.88233        20.06709         1.01969
C         46.54501        20.70029         1.32918
C         47.86037        22.74442         1.98933
C         46.57952        22.18679         1.47152
C         47.71763        24.89267         1.94619
C         46.44690        25.32392         1.54434
C         47.54129        27.27891         0.64345
C         46.35425        26.55410         0.87809
C         47.44439        28.60073        -0.02491
C         46.18878        29.34282         0.19462
C         47.39761        31.55983        -0.24214
C         46.10480        30.77095        -0.27607
C         47.40608        32.94304        -0.20559
C         46.25736        33.68288         0.23911
C         47.48262        35.83914         0.06778
C         46.26341        35.09153         0.34667
C         47.51571        37.26373         0.27137
C         46.31639        37.97217         0.61226
C         47.65165        40.11192         0.92219
C         46.30606        39.42327         0.75693
C         47.63751        41.60323         0.65569
C         46.37742        42.35602         0.85086
C         47.75463        44.55552         0.97729
C         46.50309        43.75893         1.36273
C         47.31741        45.84011         0.25369
C         46.26394        46.61144         1.03324
C         47.52910        48.80704         0.68745
C         46.35049        48.08701         1.31327
C         47.56738        50.16236         0.78814
C         46.37248        50.92669         1.17000
C         47.68776        53.03022         0.99807
C         46.47590        52.33152         1.28662
C         47.67273        54.46517         0.99697
C         46.49661        55.18438         1.07472
C         50.34114        20.54099         0.27236
C         49.12296        20.94858         0.98838
C         50.22411        23.26877         1.32971
C         49.05132        22.39200         1.40767
C         50.19735        24.71893         1.45426
C         48.92619        25.46082         1.50832
C         49.98521        27.70004         1.01115
C         48.81006        26.75671         0.95064
C         50.02397        28.78193        -0.03814
C         48.68976        29.32750        -0.44883
C         49.82850        31.53354        -1.11124
C         48.58585        30.80804        -0.73038
C         49.85460        33.01987        -0.97018
C         48.51940        33.73173        -0.87598
C         49.84562        35.86406        -0.61559
C         48.62756        35.16374        -0.40268
C         49.89435        37.27572        -0.38202
C         48.72676        37.98150         0.03069
C         49.93681        40.11130        -0.08887
C         48.78331        39.40854         0.20911
C         50.07555        41.59441         0.18824
C         48.75854        42.30173         0.31843
C         49.77558        44.40994        -0.49070
C         48.75677        43.75372         0.16349
C         49.75250        45.89058        -0.61427
C         48.55953        46.65457        -0.14138
C         49.94778        48.74971        -0.14553
C         48.80495        48.00484         0.51515
C         49.99431        50.14111         0.00458
C         48.92239        50.83608         0.82147
C         50.03742        52.98741         0.19973
C         48.86944        52.32773         0.63473
C         51.43583        21.33000         0.33298
C         52.65159        23.40817         0.93122
C         51.42967        22.66556         0.90721
C         52.63281        24.82858         1.10179
C         51.36662        25.48207         1.24097
C         52.55705        27.78276         1.00691
C         51.29720        26.99549         1.48221
C         52.48303        29.00133         0.13830
C         51.18677        29.49564        -0.29176
C         52.31636        31.63442        -0.84319
C         51.13357        30.72194        -1.21157
C         52.26149        32.97479        -1.59798
C         50.99097        33.73084        -1.22704
C         52.19741        35.91367        -1.34428
C         51.01514        35.18661        -1.10441
C         52.27796        37.27577        -0.99313
C         51.12464        37.97515        -0.55777
C         52.26936        40.14514        -0.81974
C         51.13265        39.41303        -0.45886
C         52.14378        41.53913        -1.25569
C         51.01216        42.31733        -0.76495
C         52.11290        44.42394        -1.48409
C         50.95282        43.68349        -0.96689
C         52.04820        45.89185        -1.51398
C         51.02194        46.59964        -0.91298
C         52.16383        48.79591        -1.18370
C         51.02882        48.05184        -0.76283
C         52.26592        50.18256        -0.94713
C         51.14814        50.87704        -0.38472
C         51.15217        52.29777        -0.24425
C         55.08100        23.41870         0.83827
C         53.89304        22.72853         0.81912
C         55.09168        24.83205         0.93676
C         53.88293        25.53728         1.07329
C         55.03352        27.67053         0.35777
C         53.88067        27.02185         0.98152
C         54.97470        29.02634        -0.06150
C         53.66791        29.63349        -0.24341
C         54.84774        31.79275        -0.95965
C         53.63921        30.88740        -1.09116
C         54.80866        33.09793        -1.40940
C         53.50254        33.84792        -1.28553
C         54.70695        35.99340        -2.03464
C         53.37340        35.21692        -2.01135
C         54.78405        37.36646        -1.53786
C         53.58298        37.94832        -0.95925
C         54.76295        40.23409        -1.31738
C         53.56426        39.51246        -0.87741
C         54.70939        41.61880        -1.56233
C         53.40029        42.29480        -1.68979
C         54.55991        44.39685        -2.30346
C         53.31762        43.76511        -1.70149
C         54.50462        45.92038        -2.30800
C         53.19992        46.63145        -2.08738
C         54.49711        48.90263        -2.30549
C         53.22227        48.13774        -1.96861
C         54.62129        50.22796        -1.68062
C         53.54107        50.84344        -1.13634
C         57.67023        24.83349         0.53368
C         56.39572        25.54566         0.84737
C         57.48100        27.64175        -0.21249
C         56.32582        26.99562         0.47195
C         57.51441        29.14256        -0.03511
C         56.16319        29.73597        -0.35638
C         57.35979        31.80399        -1.20507
C         56.15552        31.22894        -0.48847
C         57.26396        33.10979        -1.70902
C         56.02497        33.79283        -1.72698
C         57.29111        35.97552        -1.84809
C         56.02504        35.22803        -2.06181
C         57.27642        37.38161        -1.65586
C         56.00392        38.08658        -1.47722
C         57.23250        40.28603        -1.26764
C         55.98461        39.50503        -1.32543
C         57.18628        41.73111        -1.56172
C         55.92529        42.38210        -1.67607
C         57.06605        44.52855        -1.90166
C         55.87243        43.78927        -1.84890
C         57.03510        46.00877        -1.83141
C         55.71097        46.77059        -1.89719
C         57.05624        48.83784        -2.59589
C         55.74535        48.09159        -2.74089
C         58.74915        25.44761         0.01311
C         59.96986        27.66010        -0.55721
C         58.73521        26.86713        -0.41781
C         59.91387        29.00722        -0.76820
C         58.69221        29.77447        -0.74443
C         59.76581        31.77763        -1.77289
C         58.60218        31.08840        -1.22174
C         59.71412        33.03802        -2.24398
C         58.42712        33.80046        -2.39241
C         59.71062        35.96779        -1.90700
C         58.50075        35.26906        -1.98984
C         59.71257        37.35063        -1.72420
C         58.51647        38.07241        -1.60952
C         59.69118        40.35260        -1.88007
C         58.55783        39.54670        -1.40022
C         59.61676        41.70455        -1.96570
C         58.38278        42.44801        -1.78303
C         59.51126        44.64240        -2.26704
C         58.32885        43.87101        -1.93722
C         59.50302        45.99241        -2.41286
C         58.31292        46.77386        -2.05065
C         58.22507        48.21886        -2.38029
O         52.48344        41.69005        -2.67585
O         45.71057        20.00836         2.29615
O         38.32087        20.15920        -2.54935
O         53.66729        46.30063        -3.44315
O         53.82688        38.66179         0.28486
O         37.16298        30.95827         3.60307
O         31.78006        45.20223        -2.80797
O         48.76121        46.53769        -1.57253
O         42.60696        20.72458        -1.32011
O         53.41081        48.80928        -3.27097
O         56.60113        26.58552         1.87499
O         45.47942        42.25344        -0.30832
O         49.66229        28.71763         1.97031
O         32.65267        39.88210         2.04295
O         48.86611        31.12107        -2.16329
O         44.54338        24.68467         3.02543
O         42.22659        32.37277        -0.37479
O         25.26082        37.41717         1.03315
O         35.94392        25.34657         2.25424
O         34.26533        31.03132         3.45558
O         46.29425        22.86369         0.18071
O         27.94378        33.80319         2.31617
O         28.55878        35.50781        -0.65256
O         28.48080        24.78157         0.49104
O         29.37380        46.85659        -0.36218
O         34.61384        22.58325        -2.78157
O         29.90128        43.87436        -3.79187
O         44.69443        33.10459         2.10289
O         37.93328        50.82502         3.10230
O         42.41570        37.57605         3.05063
O         41.04542        26.61906         3.29125
O         48.81849        20.05322         2.14640
O         44.54328        26.83611        -0.73941
O         53.47783        27.88244         2.11864
O         47.92461        28.56093        -1.44019
O         57.83549        46.47772        -0.67861
O         25.68435        42.30199        -4.88322
O         47.77502        23.82651         2.85748
O         58.06210        39.95621        -0.08528
O         32.45857        41.37499        -2.16102
O         46.19438        44.00192         2.76086
O         31.15751        29.92629         2.64395
O         33.72579        27.74397        -0.85754
O         41.64305        51.96863         3.37402
O         41.59717        55.71400        -0.56204
O         28.63609        38.40971         1.37903
O         43.52741        43.99534         3.31870
O         35.46959        39.75119         3.43159
O         55.38659        35.70673        -3.30819
O         42.48253        23.27412        -0.75501
O         36.00710        24.40672        -1.38830
O         57.76295        27.13102        -1.53634
O         32.88811        36.92305        -0.42050
O         38.47872        35.59337         0.19107
O         39.45937        46.33668         3.66324
O         43.43798        38.69220        -0.20713
O         36.27280        21.16433         0.46514
O         36.79894        42.09824         3.43898
O         37.42542        27.79267         3.31743
O         32.79530        23.71573         0.15485
O         39.17892        38.78427         3.80542
H         39.30455        39.53754         4.42090
O         53.77330        30.45102        -2.47203
H         53.15182        30.99455        -3.01902
O         32.05137        34.53194        -0.01976
H         32.37588        35.24487        -0.62245
O         45.81836        30.61080        -1.71884
H         46.43376        29.91601        -2.05875
O         41.71893        42.28186         3.91439
H         42.55639        42.77194         4.11734
O         35.93645        52.79186         2.49017
H         36.47365        52.35611         3.19011
O         46.62747        45.40842        -0.93778
H         47.16566        45.70549        -1.71249
O         36.10532        34.79502        -0.06616
H         36.98056        34.84091        -0.52540
O         36.44991        48.83672        -1.08848
H         36.73675        47.94055        -1.37726
O         52.17133        31.87200         0.56536
H         52.66102        32.69950         0.79521
O         38.38716        52.42724        -0.23912
H         38.99342        53.08857        -0.63573
O         44.79181        48.73690        -0.38017
H         43.93679        49.17558        -0.57233
O         33.92353        42.00153         3.19857
H         34.30412        41.52895         3.97163
O         58.12880        33.82227        -3.82497
H         58.00042        32.89529        -4.11672
O         30.57469        24.21713        -3.09014
H         31.48101        24.53507        -3.29036
O         25.93528        32.20370        -1.95965
H         26.13558        31.32209        -2.34165
O         41.75181        34.92424         3.47201
H         41.97076        35.83198         3.79703
O         36.47336        45.60635        -1.03062
H         35.88164        45.09115        -1.62227
O         34.45576        49.77344         1.83364
H         34.20921        50.62775         2.24726
O         23.89969        39.97841        -0.01689
H         23.71876        39.70511         0.90696
O         42.22962        28.20861        -0.55626
H         43.03440        27.65875        -0.85366
O         30.30753        41.35597        -3.65059
H         31.26438        41.47342        -3.84388
O         29.13827        31.63205        -0.83244
H         30.00035        31.31238        -1.17070
O         49.25295        47.72679         1.88352
H         49.46181        48.60941         2.28213
O         55.65858        47.80272        -4.13980
H         54.69860        47.82309        -4.37815
O         55.40124        47.17005        -0.53415
H         56.26392        47.19773        -0.04940
O         46.60044        48.16955         2.74664
H         47.50823        47.81420         2.89825
O         48.05704        33.82295        -2.26965
H         48.08286        32.90195        -2.62807
O         45.53579        53.27961         3.25056
H         44.67460        53.49893         3.66755
O         42.51268        18.54232         1.60267
H         42.59765        17.58428         1.79111
O         57.73489        29.39694         1.40497
H         57.19514        28.75208         1.91727
O         51.26141        27.08673         2.91566
H         50.70960        27.89485         3.10453
O         34.11362        49.74917        -2.34143
H         35.03735        49.44707        -2.13755
O         56.28334        31.71447         0.91479
H         56.93479        31.11430         1.36148
O         47.95861        39.98326         2.35250
H         48.88238        40.29366         2.48407
O         54.52128        43.96533        -3.69959
H         53.87490        44.55229        -4.15844
O         39.04613        38.45734         0.18384
H         38.96795        37.63409        -0.35143
O         52.22894        32.63724        -2.99477
H         52.25650        33.48637        -3.50659
O         41.24004        43.68347         0.50852
H         40.26946        43.77378         0.33313
O         52.98148        35.06088        -3.39534
H         53.81113        35.12478        -3.93209
O         33.03132        39.13125        -1.50587
H         33.31743        38.18993        -1.57363
O         38.50199        44.00248         4.20682
H         39.19809        43.70215         4.82618
O         49.36215        50.61357         2.23174
H         50.10549        51.23126         2.40459
O         38.48140        44.23204         0.56769
H         37.91279        44.67937        -0.10884
O         27.29581        31.28092         2.30231
H         27.60399        31.98442         2.92155
O         31.50074        47.93976         0.95853
H         30.62869        47.47723         0.97138
O         27.81548        49.05938        -0.60510
H         27.82631        48.30874         0.02911
O         27.18154        27.26160        -2.61242
H         26.45831        26.92026        -3.18120
O         38.77634        25.60988         3.41606
H         38.44387        26.27662         4.05910
O         25.14350        38.09680        -2.87891
H         25.48340        38.35722        -3.76045
O         51.23909        30.23924        -2.55947
H         50.32188        30.18604        -2.91872
O         53.44160        34.19129         0.14225
H         54.34401        34.13689         0.52417
O         48.46927        44.90746         2.17741
H         47.82509        44.82000         2.92400
O         50.71725        41.67664         1.51006
H         50.71036        42.61928         1.78465
O         31.00233        34.16093         3.43582
H         31.56110        34.90120         3.76966
O         37.79816        33.44740         3.84195
H         37.50738        32.66260         4.36860
O         36.24696        53.08502        -1.16552
H         36.43407        52.17379        -1.47646
O         40.64866        29.07262         3.57714
H         41.09506        28.27838         3.96674
O         32.25648        36.44173         3.16275
H         32.90920        37.09076         3.50298
O         36.70110        48.35612         3.48422
H         37.12713        48.89400         4.18603
H         22.07703        27.21507        -1.61427
H         22.00875        29.64232        -1.26444
H         22.03713        31.59745        -1.21687
H         22.08926        34.01018        -1.03654
H         22.11397        36.05325        -0.67884
H         22.28465        38.30199        -1.13704
H         22.75900        39.54256        -2.90031
H         23.11973        41.60674        -4.13035
H         23.26520        43.56236        -4.69963
H         23.15676        46.00252        -4.38184
H         25.41791        23.81214        -1.30113
H         23.33608        25.10077        -1.64692
H         26.02580        49.38142        -2.66785
H         24.13648        48.08821        -3.63947
H         27.18605        22.75319        -1.49376
H         27.95796        50.21793        -3.30348
H         29.33454        21.78474        -2.01604
H         30.11197        51.34174        -3.08996
H         33.06706        19.75700        -3.05108
H         31.05886        21.14126        -3.11361
H         33.20503        53.90505        -1.02336
H         31.28235        52.59957        -1.81778
H         34.76773        18.62565        -2.53205
H         34.41894        54.94185         0.51385
H         36.74910        17.27073        -2.03304
H         36.45895        56.19485         1.09098
H         40.62838        15.10862        -1.76916
H         38.50316        16.35010        -2.05338
H         40.22710        58.43237         0.72049
H         38.13336        57.18876         0.83091
H         42.97508        15.04215        -1.21053
H         42.78905        58.45433         0.85561
H         45.06963        16.15709        -0.61722
H         44.89277        57.24600         1.07391
H         48.75227        18.26936         0.06293
H         46.68922        17.22235        -0.57196
H         48.60663        55.01950         0.84069
H         46.54053        56.27111         0.91702
H         50.38076        19.56749        -0.23514
H         50.07069        54.08443         0.16703
H         52.35093        20.98994        -0.17105
H         52.02349        52.87480        -0.57875
H         56.02530        22.86443         0.76675
H         53.91938        21.63345         0.75741
H         55.59947        50.72863        -1.65909
H         53.67077        51.85349        -0.72356
H         57.75217        23.77299         0.81309
H         57.06275        49.90374        -2.87078
H         59.68250        24.88129        -0.12862
H         60.93843        27.13983        -0.54988
H         60.85924        29.53210        -0.96817
H         60.73289        31.25581        -1.77207
H         60.62716        33.49108        -2.65765
H         60.66887        35.44146        -2.00970
H         60.67528        37.87648        -1.66550
H         60.62141        39.84613        -2.17519
H         60.51540        42.24808        -2.28688
H         60.44452        44.10577        -2.48419
H         60.39656        46.52164        -2.77404
H         59.16713        48.78849        -2.41088
