         651
 CSIRO Nanostructure Databank - Neutral Graphene Oxide Data Set
C          6.15952        31.52012        -0.12218
C          6.12707        32.86501        -0.12281
C          8.45621        27.31931         1.17041
C          8.46878        28.72963         0.97087
C          7.35947        29.37901         0.45625
C          8.54257        31.57368         0.67995
C          7.46934        30.78490        -0.03781
C          8.51506        32.97475         0.58187
C          7.33509        33.65340         0.09733
C          8.47859        35.83488         0.24692
C          7.33723        35.01965        -0.08669
C          8.44277        37.20032         0.07651
C         10.64111        23.08603         2.01667
C         10.83109        24.47960         1.77337
C          9.64390        25.22910         1.63865
C         10.86053        27.36576         1.71150
C          9.63391        26.63212         1.48388
C         10.83094        28.77274         1.76249
C          9.66800        29.47995         1.34826
C         10.77955        31.69427         1.77027
C          9.63315        30.89464         1.28160
C         10.85341        33.11125         1.37285
C          9.68149        33.75714         0.91612
C         10.84030        35.90121         1.05849
C          9.66660        35.16659         0.76510
C         10.80243        37.38132         0.95931
C          9.46955        38.09714         0.71227
C         10.78559        40.04778        -0.31345
C          9.60574        39.45489         0.05028
C         10.87342        41.41241        -0.76933
C         13.26726        19.16941         1.00029
C         13.15890        20.09208         2.19014
C         11.85733        20.86280         2.35126
C         13.52886        23.15007         1.60521
C         11.62000        22.07975         1.77346
C         13.38612        24.52948         1.86784
C         12.10547        25.21760         1.79064
C         13.30271        27.40438         2.12913
C         12.08238        26.62971         1.88967
C         13.30780        28.76816         2.26767
C         11.98528        29.47439         2.45314
C         13.33146        31.69925         2.03463
C         12.03506        30.99464         2.24852
C         13.29283        33.07849         1.75529
C         12.06556        33.82131         1.53883
C         13.31370        36.01903         1.38110
C         12.05257        35.23733         1.32758
C         13.37319        37.31801         0.69665
C         12.10300        38.05997         0.61988
C         13.32685        39.79868        -0.77937
C         12.03506        39.23887        -0.28251
C         13.30238        41.19518        -1.32287
C         12.06128        42.00609        -1.19348
C         13.35537        44.07914        -1.71050
C         12.14036        43.39357        -1.50451
C         13.38314        45.49799        -1.85159
C         15.68304        15.50479        -1.31505
C         15.72109        16.54069        -0.23624
C         14.47784        17.36413        -0.10732
C         15.75974        19.03370         1.19705
C         14.48931        18.52420         0.69695
C         15.83352        20.23786         2.00026
C         14.47574        20.93957         2.32318
C         15.82176        23.07709         2.35206
C         14.58291        22.39133         2.14338
C         15.81160        24.50153         2.23751
C         14.60400        25.20772         2.15438
C         15.79683        27.43054         2.11365
C         14.56166        26.66824         2.50858
C         15.83224        28.85251         2.44224
C         14.53079        29.55865         2.73511
C         15.82080        31.62565         2.02941
C         14.56751        30.98270         2.17558
C         15.86249        33.01020         1.53543
C         14.55402        33.76743         1.43541
C         15.87924        35.89920         1.08473
C         14.61722        35.25259         1.48573
C         15.85759        37.24228         0.59604
C         14.58888        37.90591         0.30762
C         15.82011        39.87438        -0.57590
C         14.60555        39.19350        -0.33340
C         15.85069        41.23047        -1.03208
C         14.61432        41.91601        -1.44809
C         15.82037        44.07027        -1.56483
C         14.61951        43.38395        -1.57302
C         15.86057        45.43830        -2.21589
C         14.57884        46.22255        -1.99196
C         15.77573        48.39974        -2.06802
C         14.58295        47.62000        -2.11672
C         15.70523        49.79989        -2.00912
C         18.01848        11.72294        -3.63374
C         17.98422        12.85285        -2.68142
C         16.81899        13.70153        -2.51469
C         18.16441        15.38786        -1.26763
C         16.86377        14.84675        -1.69085
C         18.21520        16.78265        -0.79579
C         16.93817        17.43438        -0.39430
C         18.30496        19.12999         0.98522
C         16.98393        18.67488         0.46282
C         18.29928        20.33730         1.75982
C         17.09847        21.02269         2.02112
C         18.29826        23.15542         2.87319
C         17.06150        22.37973         2.42524
C         18.36022        24.49815         2.20237
C         17.09217        25.14250         1.75864
C         18.31926        27.37736         2.35286
C         17.07736        26.67884         1.91733
C         18.29030        28.84427         2.38859
C         17.05997        29.54342         2.37522
C         18.32030        31.71652         2.31322
C         17.06989        30.99157         2.28955
C         18.31447        33.14326         2.01132
C         17.11387        33.78356         1.62552
C         18.34461        35.88835         1.28661
C         17.07693        35.16728         1.28516
C         18.34295        37.37551         0.75768
C         17.06061        37.92479         0.30063
C         18.29138        39.92113        -0.48015
C         17.07254        39.22210        -0.28406
C         18.28346        41.30846        -0.69582
C         17.04390        41.96787        -0.98797
C         18.18282        44.13902        -0.85469
C         17.04395        43.39403        -1.19649
C         17.97736        45.63573        -0.75521
C         17.18644        46.21087        -1.93365
C         18.14260        48.45498        -1.44236
C         17.03384        47.71280        -1.76001
C         18.16167        49.82311        -2.06287
C         16.88775        50.60843        -1.88348
C         18.13908        52.78294        -1.58417
C         16.89458        51.97756        -1.87304
C         18.13864        54.20444        -2.09398
C         20.31174         7.71731        -5.45733
C         20.42072         9.12773        -4.89746
C         19.23650         9.84193        -4.66757
C         20.49433        11.80279        -3.75583
C         19.19719        11.12386        -4.02825
C         20.55089        12.90601        -2.75404
C         19.28896        13.36518        -2.09687
C         20.63805        15.25033        -1.05303
C         19.34712        14.71978        -1.49542
C         20.69610        16.40919        -0.27656
C         19.54318        17.30954        -0.20522
C         20.73018        18.76138         1.55683
C         19.48270        18.42599         0.75470
C         20.84024        20.25938         1.80116
C         19.57759        20.93492         2.19395
C         20.89767        23.10864         2.59345
C         19.59603        22.35732         2.69482
C         20.91564        24.52797         2.19262
C         19.62051        25.17436         1.75790
C         20.86064        27.43767         1.93459
C         19.62450        26.63009         2.26907
C         20.85264        28.80930         2.57951
C         19.53140        29.57400         2.66075
C         20.81897        31.74555         2.79551
C         19.53049        31.04431         2.58779
C         20.83283        33.25871         2.33964
C         19.56318        33.83936         1.84828
C         20.81552        35.73782         0.78283
C         19.58542        35.12125         1.30634
C         20.82063        37.18019         0.31635
C         19.57667        37.93910         0.28482
C         20.79141        40.03671        -0.07510
C         19.60588        39.19402        -0.51934
C         20.69020        41.42785        -0.06137
C         19.47631        42.08039        -0.47888
C         20.51362        44.28102         0.04520
C         19.38806        43.48958        -0.44773
C         20.19825        45.69396         0.21303
C         19.25506        46.39891        -0.47292
C         20.57094        48.66330        -0.57699
C         19.19154        47.93473        -0.45672
C         20.70811        49.92609        -1.40052
C         19.45302        50.59257        -1.92363
C         20.62105        52.76086        -1.88172
C         19.43272        52.05940        -1.90153
C         20.63224        54.18573        -2.37372
C         19.30348        54.91027        -2.28284
C         20.51507        57.06840        -2.57941
C         19.32718        56.31622        -2.57439
C         20.57150        58.41590        -2.97248
C         22.89593         5.05860        -6.47621
C         21.72841         5.85675        -6.46233
C         22.79229         7.94776        -5.80715
C         21.63685         7.16601        -5.95655
C         22.92541         9.02767        -4.87961
C         21.67914         9.67619        -4.55402
C         23.05285        11.51778        -3.47518
C         21.75661        11.06130        -4.07772
C         23.06354        12.66871        -2.55251
C         21.79250        13.14215        -1.91206
C         23.11968        15.08543        -1.02964
C         21.85849        14.53784        -1.34636
C         23.21118        16.30098        -0.22509
C         21.95100        16.73515         0.49799
C         23.26101        18.68385         1.44950
C         21.98977        18.16999         0.96333
C         23.31939        20.13775         1.87986
C         22.03717        20.88351         1.95684
C         23.33238        23.04427         1.73565
C         22.14591        22.31648         2.32356
C         23.38247        24.49603         2.15319
C         22.11990        25.22015         2.12582
C         23.33310        27.36515         2.34984
C         22.15948        26.67927         2.15332
C         23.33892        28.81456         2.58043
C         22.12737        29.55790         2.54286
C         23.33203        31.52761         3.12767
C         22.08843        30.94210         2.83391
C         23.30437        33.49179         2.34959
C         22.08656        33.92008         1.88423
C         23.30171        35.82298         0.84691
C         22.11016        35.13104         1.09796
C         23.29075        37.20562         0.45990
C         22.09654        37.90982         0.28188
C         23.20110        40.10837         0.43124
C         22.02941        39.36112         0.19620
C         23.11616        41.55029         0.76055
C         21.79436        42.25569         0.47329
C         23.04440        44.50463         0.82434
C         21.75684        43.73513         0.35108
C         23.15306        45.92410         0.24578
C         22.09599        46.76560         0.40971
C         23.13748        48.68571        -0.77954
C         21.91695        48.10017        -0.16257
C         23.14486        50.14951        -0.92646
C         21.91306        50.77543        -1.17890
C         23.11040        52.88505        -1.55749
C         21.88229        52.13329        -1.57549
C         23.09613        54.29298        -1.74401
C         21.79252        54.97742        -1.82281
C         23.05068        57.15033        -2.22938
C         21.76202        56.45831        -2.04970
C         23.03881        58.49827        -2.65378
C         21.79418        59.14766        -2.98593
C         23.03716        61.20600        -3.44700
C         21.82564        60.50291        -3.37785
C         24.16356         5.41486        -6.01167
C         25.47901         7.33064        -4.95039
C         24.54609         6.76706        -5.82596
C         25.40668         8.67951        -4.47455
C         24.18486         9.43949        -4.37408
C         25.48662        11.25209        -3.12791
C         24.17596        10.51709        -3.30089
C         25.51523        12.50074        -2.56118
C         24.28474        13.18521        -2.15087
C         25.59574        14.88718        -0.87344
C         24.31231        14.39190        -1.37822
C         25.67126        16.25693        -0.33823
C         24.42555        16.87541         0.07408
C         25.74399        18.87495         0.91841
C         24.56182        17.94987         1.13470
C         25.80313        20.16586         1.42196
C         24.59505        20.88837         1.79305
C         25.86029        22.99492         2.05093
C         24.62032        22.26987         1.90008
C         25.82737        24.37011         2.34345
C         24.59794        25.13532         2.29017
C         25.71286        27.23315         3.15511
C         24.67402        26.65980         2.19176
C         25.80368        28.75338         3.11753
C         24.55609        29.48488         2.88308
C         25.82598        31.66634         2.85750
C         24.58249        30.89283         2.98605
C         25.80419        33.02102         2.16054
C         24.57980        33.75395         1.67157
C         25.88454        35.82833         0.97898
C         24.60142        35.02256         0.78053
C         25.87671        37.29292         0.67576
C         24.57862        37.96659         0.18836
C         25.53303        40.13015         1.07578
C         24.43667        39.42595         0.60388
C         25.62722        41.58605         0.73675
C         24.36233        42.36153         0.72716
C         25.61724        44.45442         0.38399
C         24.35415        43.72998         0.59994
C         25.59588        45.84894        -0.03145
C         24.40833        46.51404        -0.19079
C         25.66469        48.70561        -0.65088
C         24.41117        47.90911        -0.72765
C         25.62063        50.14981        -0.81088
C         24.38119        50.83575        -1.00991
C         25.57745        52.96480        -1.37955
C         24.35278        52.23289        -1.30261
C         25.54449        54.36491        -1.63261
C         24.29312        55.04220        -1.76644
C         25.51232        57.17063        -2.17481
C         24.26751        56.46154        -2.02874
C         25.48946        58.54289        -2.50622
C         24.27656        59.21416        -2.76835
C         24.24452        60.58499        -3.15766
C         26.61287         9.22191        -3.92480
C         27.96536        11.10139        -3.06715
C         26.71246        10.51959        -3.39801
C         28.05749        12.41023        -2.55781
C         26.80939        13.27368        -2.52172
C         28.12202        14.99266        -1.21040
C         26.87037        14.24049        -1.34954
C         28.12443        16.27415        -0.64813
C         26.88574        16.90665        -0.23223
C         28.22755        18.92879         0.50263
C         26.89383        18.38654         0.06631
C         28.26150        20.21559         1.08915
C         27.06569        20.89365         1.44417
C         28.34991        22.91486         2.07679
C         27.10900        22.25599         1.89813
C         28.38234        24.33228         2.48565
C         27.08680        25.05346         2.75057
C         28.40490        27.33735         2.76894
C         27.09360        26.53377         3.01887
C         28.17911        28.78602         2.23828
C         27.09507        29.53321         2.99676
C         28.33260        31.70202         2.60729
C         27.02320        30.99402         2.75417
C         28.35459        33.20473         2.50545
C         27.03217        33.88469         2.29891
C         28.29831        36.07574         1.76292
C         27.01143        35.30840         1.83981
C         28.21816        37.46979         1.70663
C         26.93204        38.08061         1.37244
C         28.43617        40.56008         1.66842
C         26.61699        39.39372         1.64555
C         28.25134        41.78463         1.02488
C         26.92267        42.35674         0.68305
C         28.11746        44.52082         0.27578
C         26.85251        43.81376         0.46595
C         28.10589        45.89641         0.04638
C         26.86515        46.53136        -0.51016
C         28.08729        48.83345        -0.08747
C         26.83442        48.04321        -0.38796
C         28.08347        50.21253        -0.69344
C         26.84484        50.88017        -0.89273
C         28.04043        53.01545        -1.36257
C         26.82296        52.28460        -1.21427
C         28.00657        54.37645        -1.62377
C         26.77465        55.09223        -1.74962
C         26.74020        56.47309        -2.01211
C         29.26654        13.01075        -2.19519
C         30.55505        14.95502        -1.36953
C         29.33413        14.32908        -1.62682
C         30.61767        16.28264        -0.83717
C         29.37318        16.97010        -0.49618
C         30.72765        18.81715         0.43684
C         29.40078        18.25579         0.08060
C         30.78528        20.12922         1.11920
C         29.54592        20.99462         1.03555
C         30.80494        22.97562         1.80344
C         29.59945        22.26168         1.86562
C         30.69469        24.40817         1.35397
C         29.59931        25.12877         2.12331
C         30.71956        27.34110         1.81915
C         29.38585        26.59210         1.78365
C         30.65295        28.82549         1.58263
C         29.48412        29.56649         2.08766
C         30.77537        31.68812         1.95457
C         29.53118        30.94087         2.16130
C         30.75292        33.15399         1.94781
C         29.58934        33.89338         2.03805
C         30.74937        36.06062         1.75927
C         29.55362        35.35664         1.85158
C         30.79533        37.53725         1.84397
C         29.47068        38.28978         1.88636
C         30.67461        40.31300         0.84249
C         29.54329        39.73009         1.47042
C         30.60458        41.64461         0.37715
C         29.40212        42.38605         0.47517
C         30.62158        44.46871         0.09330
C         29.36522        43.80499         0.21985
C         30.65909        45.94451         0.19053
C         29.34474        46.66842         0.09792
C         30.53850        48.69581        -0.71285
C         29.34277        48.06137        -0.35160
C         30.50778        50.10943        -0.99385
C         29.32337        50.84159        -0.97283
C         29.38687        52.32850        -1.25537
C         31.85127        16.90408        -0.67511
C         33.22311        18.96484        -0.00117
C         31.90016        18.37784        -0.41326
C         33.30072        20.21780         0.57664
C         32.11036        20.81142         1.23356
C         33.26402        23.06711         1.13398
C         32.09434        22.30391         1.57075
C         33.18934        24.48361         1.06455
C         32.00421        25.15800         1.32356
C         33.23875        27.40322         1.23877
C         32.00737        26.62162         1.54587
C         33.24315        28.81179         1.34699
C         31.96434        29.57505         1.41458
C         33.31884        31.62457         2.04585
C         31.96945        31.01026         1.72216
C         33.31925        33.15437         1.94213
C         32.02711        33.85115         1.51628
C         33.32317        36.10521         1.64789
C         32.02442        35.33405         1.87075
C         33.22306        37.54105         1.29292
C         32.03605        38.23889         1.37374
C         33.06839        40.27592         0.40061
C         31.95613        39.60830         0.86355
C         33.02282        41.54668        -0.40333
C         31.69863        42.29729        -0.46443
C         33.11108        44.50115         0.22564
C         31.81164        43.76344        -0.05442
C         33.01317        45.82884        -0.49097
C         31.86758        46.61056        -0.37214
C         31.76177        47.95451        -0.79098
C         34.50834        20.97576         0.64631
C         35.70415        23.12301         0.79471
C         34.49320        22.36598         0.87200
C         35.70382        24.51830         0.76987
C         34.39352        25.24540         0.56143
C         35.65051        27.39175         0.85247
C         34.43169        26.69832         0.97381
C         35.66461        28.81062         0.94578
C         34.45604        29.52759         1.19429
C         35.66425        31.64955         1.05526
C         34.49637        30.96659         1.33373
C         35.86269        33.13578         1.33026
C         34.58592        33.90975         1.62533
C         35.59233        35.98680         0.57685
C         34.51284        35.34120         1.23770
C         35.58571        37.39853         0.35566
C         34.47540        38.19875         0.88255
C         35.39957        40.15064        -0.53186
C         34.39853        39.65882         0.43687
C         34.96631        41.40444        -1.23300
C         34.27381        42.38469        -0.32131
C         34.32634        43.71959        -0.21625
C         36.89747        25.25325         0.70434
C         38.08819        27.38836         0.47172
C         36.89926        26.67349         0.65826
C         38.09411        28.80770         0.41949
C         36.87576        29.51728         0.69129
C         37.99621        31.60795         0.14448
C         36.84905        30.93249         0.62953
C         37.85465        33.00181        -0.29490
C         36.66145        33.77654         0.20236
C         37.78426        35.86457        -0.57487
C         36.70806        35.23779         0.09876
C         37.72637        37.25505        -0.81004
C         36.62797        38.02269        -0.37419
C         36.48992        39.39754        -0.83440
C         39.25928        29.52890         0.07469
C         40.33232        31.66245        -0.65403
C         39.20318        30.91878        -0.12232
C         40.25368        32.98830        -0.95984
C         39.03455        33.74325        -0.77165
C         38.95132        35.10214        -0.96282
O         28.55333        32.55345         3.79731
O         23.37018        32.85050         3.58297
O         31.54053        26.94770         2.94280
O         13.94946        41.29116        -2.62313
O         12.59077        22.48789         0.82562
O         33.58093        41.08566        -1.76045
O         27.16963        25.58975         4.12377
O         16.74215        18.71760        -1.01656
O         23.28779        19.07235         2.91592
O         27.42818        40.11090         2.52531
O         18.55908        12.38631        -1.33427
O         21.16488        48.99428         0.72454
O         20.75738        32.85953         3.73267
O         21.83338        22.73387         3.67177
O         12.52189        38.87188        -1.61467
O         20.72161        36.04684        -0.67329
O         26.60545        29.15630         4.29933
O         22.73064        11.85448        -4.85478
O         30.21932        38.02717         3.10873
O         11.12421        31.61153         3.22090
O         15.81378        45.09739        -3.59251
O         25.22375        32.70033         0.85499
O         15.27277        20.35656         3.37334
O         20.22295        28.97952         3.85737
O         26.69329        34.98165         3.23134
O         16.40006        27.25518         0.75765
O         20.44116        49.96071        -2.81490
O         19.61864        21.26538         3.64881
O         29.42578        24.68915         3.47887
O         30.81490        18.89182         1.90338
O         18.99853        26.77689         3.54126
O         23.63460        47.99765        -1.98436
O         22.18671        41.84751         1.84498
O         36.61023        33.13969        -1.10442
O         23.86690         7.69331        -6.65796
O         34.89978        39.30487         1.75389
O         20.57911        13.21927        -4.16418
O         19.06707        17.65600        -1.56857
O         18.36873        37.03747         2.19257
O         26.41594        36.33127        -0.28615
O         26.37604        41.67494        -0.54296
O         26.29029        13.81682        -0.08439
O         29.51168        21.64725        -0.24267
O         30.10522        46.49948         1.42786
O         15.18876        33.21435         0.23320
O         21.53644        55.86753        -0.70202
O         34.10080        33.71738         3.02261
O         32.81044        35.78600         2.99673
O         31.09413        29.23837         0.25475
O         14.02959        35.87821         2.66657
O         32.40820        21.26394         2.57377
O         21.00096        46.35378         1.16405
O         11.52897        38.15389         1.97768
O         17.99423        49.57743        -3.59085
O         26.77453        14.03819        -3.71114
O         23.89101         9.83183        -2.03474
H         24.66641         9.27129        -1.81972
O         23.08464        23.06294         0.28745
H         23.85940        23.47559        -0.14978
O         28.08308        49.04751         1.39062
H         28.61113        48.32560         1.79968
O         27.59462        28.77115         0.91405
H         28.12953        28.18742         0.32251
O         14.41204        29.69234         4.18576
H         13.45583        29.58280         4.41965
O         18.64693        48.32288         0.83937
H         19.41333        48.40552         1.45591
O         18.15215        52.90415        -0.10786
H         18.82979        53.57258         0.13223
O         28.86806        26.58561         0.43577
H         29.31418        25.84355        -0.06031
O         30.24080        24.30436        -0.05021
H         29.95065        23.33730        -0.22116
O         33.21446        44.72819         1.66213
H         32.45908        45.29293         1.93287
O         22.93426        44.62741         2.26137
H         22.09932        45.11072         2.45113
O         11.71216        29.27243         3.89159
H         11.12386        30.02327         4.15735
O         26.65792        19.02183        -1.25458
H         27.18364        19.85142        -1.29369
O         18.87258        48.53391        -4.04129
H         18.42029        47.67945        -3.77013
O         31.21608        42.25648        -1.83334
H         31.93220        41.87224        -2.38850
O         33.51115        31.27876         3.44944
H         33.86864        32.07761         3.90374
O         20.93598        54.07947        -3.80293
H         20.32004        53.42707        -4.19972
O         15.94602        15.84315         1.05287
H         15.21955        15.19604         1.17560
O         26.94050        46.27675        -1.96234
H         26.09529        46.58026        -2.36029
O          7.93934        30.66299        -1.44013
H          8.76389        30.13161        -1.42522
O         21.92292        15.91360         1.72056
H         22.75530        16.09777         2.21220
O         25.17260        26.93193         4.45126
H         25.78523        27.30179         5.12372
O         29.07477        27.47811         4.01651
H         29.10542        26.58725         4.43844
O         17.16387        45.85008         0.44373
H         17.37067        46.75235         0.78811
O         19.83362        38.83100        -1.93305
H         20.18774        37.91502        -1.96101
O         25.14302        26.94473         0.84693
H         24.39992        26.81979         0.22038
O         21.58626        12.24633        -0.76066
H         22.31713        12.39375        -0.12289
O         20.78591        27.69770         0.50122
H         20.55030        26.83762         0.06349
O         19.67746        25.23952         0.28478
H         18.74946        25.08170        -0.04495
O         18.01093        46.06461        -3.11127
H         17.38595        45.63012        -3.77685
O         17.03989        24.90797         0.29134
H         16.49097        25.64471        -0.08196
O         34.20374        25.27468        -0.89779
H         34.98454        25.72215        -1.28801
O         30.15666        52.58028        -2.44337
H         29.68692        52.17970        -3.20330
O         24.61005        34.53889        -0.58126
H         25.04728        35.23534        -1.12576
O         32.07057        33.78131         0.05323
H         31.15687        33.84175        -0.29697
O         24.89881        17.18008         2.33633
H         24.71263        17.77248         3.10377
O         13.13056        19.13719         3.28429
H         14.05033        19.07734         3.64505
O          8.92291        38.39067         2.04052
H          9.68970        38.64795         2.60255
O         19.75605         6.84629        -4.45680
H         20.32346         6.88735        -3.66003
O         24.71621        38.02972        -1.26097
H         23.90390        38.43722        -1.62865
O         18.14756        23.36771         4.30870
H         18.44893        22.54271         4.75224
O         31.61542        19.00634        -1.72328
H         32.28515        18.68831        -2.36479
O         20.55189        18.16762         2.88245
H         21.35160        18.41039         3.40518
O         14.60616        26.69564         3.97100
H         13.72878        26.42321         4.31224
O         36.71351        33.24663         2.50114
H         36.12589        33.24563         3.28988
H          5.24322        30.93363        -0.28536
H          5.17920        33.40544        -0.26578
H          7.52780        26.75905         0.98751
H          6.46238        28.79564         0.19852
H          6.42821        35.52138        -0.45062
H          7.53773        37.66906        -0.33851
H          9.64087        22.77450         2.35575
H          8.68465        24.69209         1.59301
H          8.67909        40.04829         0.00074
H          9.95949        42.02476        -0.73077
H         12.34118        18.73969         0.58828
H         11.17024        20.47612         3.11652
H         11.20526        43.97525        -1.50740
H         12.43312        46.05050        -1.75872
H         14.71400        15.12450        -1.67214
H         13.51850        16.97116        -0.47556
H         13.62114        48.14822        -2.22272
H         14.71934        50.28993        -2.01075
H         17.05889        11.25223        -3.89956
H         15.87241        13.42207        -2.99994
H         15.93808        52.52289        -1.90659
H         17.17728        54.74325        -2.09758
H         19.57876         7.71783        -6.30714
H         18.27864         9.35788        -4.91032
H         18.37399        56.82598        -2.78448
H         19.65285        58.91736        -3.31279
H         22.73517         3.99052        -6.69060
H         20.78043         5.32854        -6.64891
H         23.02860        62.26253        -3.74977
H         20.88455        61.00996        -3.63445
H         24.85944         4.61625        -5.71421
H         26.28206         6.69477        -4.54556
H         26.43961        59.08996        -2.59820
H         25.18852        61.14280        -3.23527
H         27.53389         8.62929        -4.03617
H         28.88211        10.50665        -3.20964
H         28.95282        54.92392        -1.74634
H         27.68563        57.02580        -2.12010
H         30.21095        12.46266        -2.34437
H         31.49567        14.44438        -1.62438
H         31.44682        50.61978        -1.25218
H         29.95789        52.81006        -0.41428
H         32.77250        16.36329        -0.94354
H         34.13736        18.51324        -0.42021
H         33.85597        46.17951        -1.10702
H         32.66854        48.47720        -1.13074
H         35.45345        20.50138         0.34279
H         36.66267        22.58270         0.76440
H         35.65667        41.77636        -2.02288
H         35.24850        44.27036        -0.45893
H         37.85985        24.71921         0.69691
H         39.02945        26.84066         0.31604
H         38.53704        37.74271        -1.37081
H         37.23507        39.77045        -1.55419
H         40.19232        28.98408        -0.13135
H         41.27384        31.11812        -0.81869
H         41.13503        33.51581        -1.35359
H         39.82274        35.65285        -1.34784
