         344
 CSIRO Nanostructure Databank - Neutral Graphene Oxide Data Set
C          1.17331         2.15689         0.83539
C          1.16341         3.53630         0.64008
C          2.36262         1.43469         0.71866
C          2.34561         4.23416         0.32295
C          1.14289         6.44251         0.12429
C          1.15331         7.80884        -0.14757
C          2.34043         5.69664         0.13251
C          2.35397         8.49500        -0.37129
C          1.12181        10.71786        -0.86829
C          1.10316        12.01966        -0.55053
C          2.38178         9.89224        -0.94872
C          2.29752        12.68734         0.09275
C          1.10407        15.04403        -0.16666
C          1.15733        16.38812        -0.37035
C          2.32463        14.23971         0.05879
C          2.39759        17.13363        -0.46344
C          2.42137        18.54846        -0.64531
C          3.55787         2.09604         0.40791
C          3.54774         3.48900         0.20288
C          4.81657         1.28108         0.20813
C          4.82880         4.17546        -0.07279
C          3.55237         6.40105        -0.03482
C          3.58074         7.79817        -0.26386
C          4.83288         5.66107        -0.12943
C          4.86936         8.48726        -0.43128
C          3.62251        10.65752        -0.55646
C          3.58764        12.01449        -0.37982
C          4.88439         9.93032        -0.63367
C          4.83245        12.76752        -0.61728
C          3.61714        14.99322        -0.12419
C          3.61893        16.44208        -0.42042
C          4.84364        14.26314        -0.54798
C          4.85838        17.12572        -0.52790
C          3.61402        19.23400        -0.71768
C          4.87191        18.55420        -0.63287
C          6.10043         2.07483         0.30285
C          6.10398         3.46728         0.20589
C          7.32583         1.38254         0.40697
C          7.33299         4.19374         0.21519
C          6.06298         6.40174         0.32985
C          6.07145         7.81133        -0.21313
C          7.35011         5.62894         0.13316
C          7.34598         8.45297        -0.35329
C          6.09327        10.62187        -0.69130
C          6.12362        12.05523        -0.63483
C          7.38870         9.86788        -0.88692
C          7.30768        12.79918        -0.60316
C          6.12844        14.96750        -0.41700
C          6.11304        16.42311        -0.43154
C          7.29798        14.22516        -0.45970
C          7.30902        17.14148        -0.41522
C          6.09801        19.25591        -0.58145
C          7.33254        18.57771        -0.42384
C          8.54236         2.05838         0.37673
C          8.56492         3.47499         0.27183
C          9.81363         1.25405         0.50864
C          9.81651         4.18779         0.21877
C          8.55405         6.32714         0.04943
C          8.53544         7.76204        -0.18920
C          9.81593         5.60901         0.11256
C          9.85015         8.42978        -0.55237
C          8.53525        10.66061        -0.25872
C          8.62362        12.07878        -0.83861
C          9.85132         9.93312        -0.36998
C          9.85598        12.77757        -0.30313
C          8.61978        14.94529        -0.54902
C          8.57205        16.41347        -0.05040
C          9.74932        14.19692         0.17359
C          9.86228        17.15081        -0.45075
C          8.55805        19.26815        -0.19160
C          9.80964        18.60328        -0.02599
C         11.08332         2.04101         0.28245
C         11.05538         3.47923         0.24235
C         12.27721         1.36531         0.16704
C         12.28749         4.19103         0.20058
C         11.04574         6.30948         0.12041
C         11.00969         7.80930         0.23385
C         12.28102         5.62719         0.17669
C         12.32343         8.46535        -0.09459
C         11.01819        10.62775        -0.32112
C         11.03083        12.09140        -0.17611
C         12.30840         9.90232        -0.37951
C         12.27613        12.80621         0.12081
C         11.04793        14.97248         0.09726
C         11.06530        16.37018         0.04789
C         12.26147        14.23866         0.22957
C         12.27316        17.07215         0.31301
C         10.96621        19.25504         0.33568
C         12.24919        18.54428         0.68090
C         13.53294         2.05659         0.11419
C         13.52683         3.48762         0.20521
C         14.74980         1.36648        -0.00293
C         14.76346         4.19217         0.31557
C         13.52644         6.34508         0.20620
C         13.52612         7.78346         0.05959
C         14.75845         5.64615         0.34066
C         14.77921         8.51235         0.12590
C         13.57885        10.68118        -0.11475
C         13.49496        12.12142         0.21917
C         14.79739         9.92487         0.21175
C         14.71015        12.81949         0.46377
C         13.49098        14.95155         0.33291
C         13.47142        16.37726         0.43514
C         14.70885        14.21182         0.43771
C         14.73032        17.14390         0.77553
C         13.51325        19.24084         0.21982
C         14.71963        18.59239         0.31669
C         15.98813         2.05222         0.06531
C         15.97090         3.46530         0.30482
C         17.23305         1.37400        -0.04915
C         17.24292         4.13062         0.58731
C         15.97527         6.37051         0.39218
C         15.99746         7.79385         0.28016
C         17.24362         5.68472         0.65104
C         17.22257         8.51331         0.39262
C         15.99211        10.61678         0.49983
C         15.96210        12.07689         0.88994
C         17.20328         9.91358         0.54167
C         17.26137        12.80564         0.60039
C         15.98095        14.93760         0.24628
C         15.97586        16.43396         0.28519
C         17.25742        14.23515         0.44344
C         17.26050        17.14307         0.41647
C         15.98857        19.24188         0.14595
C         17.22761        18.58238         0.27563
C         18.47180         2.05547        -0.01534
C         18.50045         3.46573         0.25387
C         19.70940         1.37917        -0.20654
C         19.70737         4.19305         0.21229
C         18.50373         6.37056         0.37351
C         18.49781         7.80815         0.31725
C         19.71162         5.64514         0.25180
C         19.67964         8.51415         0.18092
C         18.50403        10.61585         0.84902
C         18.46089        12.10943         0.64090
C         19.65292        10.01079         0.03906
C         19.72082        12.79187         0.64030
C         18.43245        14.97605         0.53811
C         18.45107        16.42244         0.47621
C         19.68071        14.25308         0.82510
C         19.72039        17.13118         0.38199
C         18.47313        19.26654         0.17458
C         19.70140        18.58502         0.20354
C         20.92683         2.07015        -0.18793
C         20.93530         3.50082        -0.01629
C         22.17846         1.39303        -0.35901
C         22.15716         4.21750        -0.09134
C         20.93599         6.34392         0.05829
C         20.93483         7.81731        -0.24298
C         22.15600         5.65126        -0.03507
C         22.20737         8.52554         0.16386
C         20.97186        10.67300         0.39147
C         20.94785        12.10741         0.57980
C         22.15385         9.95073         0.40035
C         22.20384        12.84791         0.56502
C         20.98131        15.03267         0.78800
C         20.91941        16.45424         0.41071
C         22.22506        14.26678         0.57713
C         22.20372        17.11165        -0.03351
C         20.93586        19.28130         0.14539
C         22.18347        18.61750         0.13798
C         23.38015         2.08354        -0.42219
C         23.38621         3.53217        -0.32577
C         24.64141         1.39021        -0.52302
C         24.58347         4.26156        -0.45900
C         23.39752         6.37699        -0.07542
C         23.39436         7.80209         0.14496
C         24.60763         5.67066        -0.28534
C         24.72045         8.48122         0.43559
C         23.44785        10.66037         0.74663
C         23.43166        12.14948         0.47911
C         24.61219         9.96576         0.02360
C         24.65487        12.84220         0.36879
C         23.43761        14.96884         0.46023
C         23.40501        16.47253         0.67036
C         24.64190        14.26199         0.31831
C         24.68995        17.18683         0.32940
C         23.39837        19.29645         0.17913
C         24.66704        18.60976         0.20262
C         25.83254         2.06920        -0.66425
C         25.80692         3.54677        -0.97890
C         27.09663         1.40107        -0.68208
C         27.09256         4.26290        -0.66589
C         25.87584         6.39139        -0.38600
C         25.91640         7.79915        -0.20059
C         27.07631         5.67464        -0.57967
C         27.13793         8.51104        -0.25714
C         25.91053        10.71170         0.14736
C         25.92228        12.09244         0.28019
C         27.12647        10.01685        -0.39897
C         27.18082        12.78423         0.28440
C         25.90326        15.01391         0.14592
C         25.90621        16.49263         0.31921
C         27.18825        14.25678         0.20131
C         27.12905        17.19492         0.25918
C         25.88479        19.30168         0.08230
C         27.12805        18.61660         0.13799
C         28.29288         2.10516        -0.66438
C         28.29598         3.54592        -0.58338
C         29.57189         1.41123        -0.68625
C         29.53612         4.25482        -0.32182
C         28.37525         6.39998        -0.79816
C         28.36876         7.84879        -0.39999
C         29.57085         5.62062        -0.31968
C         29.61112         8.54025        -0.31468
C         28.42426        10.69295        -0.06039
C         28.41609        12.09592         0.17721
C         29.62895         9.98143        -0.17315
C         29.67516        12.80150         0.23517
C         28.41592        14.99074         0.63639
C         28.40570        16.49245         0.52040
C         29.71075        14.23540         0.58466
C         29.67743        17.19975         0.27183
C         28.37135        19.29793         0.05127
C         29.61686        18.61244         0.05400
C         30.74235         2.04564        -0.47091
C         30.81801         3.48889        -0.04511
C         31.98452         4.23126        -0.66619
C         30.87037         6.33182        -0.00131
C         30.84357         7.82655        -0.26715
C         32.00231         5.56978        -0.67104
C         32.04087         8.54035        -0.20478
C         30.88276        10.68623        -0.13411
C         30.87866        12.13132        -0.00617
C         32.06870         9.94185        -0.18911
C         32.07764        12.90504        -0.25683
C         30.99886        15.03199         0.37234
C         30.91217        16.51700         0.19718
C         32.11603        14.26288        -0.19543
C         32.08389        17.25939        -0.03986
C         30.82658        19.32452        -0.16667
C         32.03747        18.65065        -0.20445
O         13.14977        10.36036        -1.49155
O          4.66387        13.61641        -1.86116
O         15.88124        15.74543        -1.00159
O         17.25676         4.85920         1.85988
O         26.64471        14.69092        -1.10640
O          3.12187        14.70597         1.22820
O         30.59559        14.55540         1.69755
O          4.92663         4.89977        -1.37391
O         28.27958        15.77942         1.84427
O         20.33056        14.72034         2.06903
O         23.63451        10.55430         2.19525
H         22.84100        10.94049         2.62374
O          5.90201         6.52775         1.78508
H          6.62129         7.10808         2.11425
O         31.08009         6.23759         1.43953
H         31.16461         5.27403         1.65912
O         22.35914        16.83418        -1.45414
H         21.65713        17.31906        -1.93653
O          4.75878         0.65868        -1.09450
H          4.70982         1.37197        -1.76449
O          8.57147        16.44110         1.41240
H          7.64591        16.34784         1.72248
O         10.06637         8.17122        -1.96118
H          9.39021         8.69964        -2.45073
O          2.18915        12.33215         1.50187
H          2.69437        13.01225         2.00569
O         20.90995         7.91975        -1.74310
H         20.23354         7.28280        -2.06088
O         25.00308         8.35360         1.85043
H         24.43827         9.00131         2.33894
O          8.95822        14.89159        -1.96986
H          8.20334        15.27251        -2.46890
O         15.88831        12.03889         2.36869
H         15.78745        12.96212         2.68581
O         25.69427         3.61979        -2.45377
H         24.86764         3.15289        -2.70222
O         27.00398        10.19382        -1.87223
H         26.10954         9.84927        -2.11458
O          8.21242        10.77570         1.14772
H          8.87722        11.36626         1.56431
O         14.81048        17.17763         2.24329
H         15.54434        17.78312         2.48506
O         19.39729        10.29082        -1.36555
H         20.01286         9.71401        -1.87962
O         24.28170         9.94376        -1.39926
H         24.10659        10.86781        -1.68036
O         23.19028        16.69109         2.09296
H         23.94964        16.31495         2.58473
O          2.57103         9.66601        -2.39254
H          2.67981        10.54323        -2.81799
O         31.04703         3.47523         1.40788
H         30.27857         3.02700         1.82058
O         28.53861         6.44806        -2.27748
H         28.27531         5.56740        -2.62404
O          7.64364         9.74055        -2.31534
H          6.84249         9.35847        -2.73116
O          9.76992         0.09916        -0.34220
H          9.67260         0.40477        -1.26715
O         12.30997        18.57917         2.15311
H         13.11867        18.07513         2.42144
O         10.73338         8.12081         1.64187
H         11.41301         7.67210         2.18805
O          8.81986        12.01288        -2.27331
H          8.97910        12.93695        -2.57516
O          9.42622        14.02923         1.58535
H          9.35367        14.93804         1.97152
O          9.99656        17.23611        -1.89069
H         10.15968        16.32811        -2.23608
O         18.80058        10.38722         2.25228
H         18.04283        10.73559         2.77068
H          0.23799         1.63542         1.08192
H          0.21287         4.07567         0.74656
H          2.36602         0.34532         0.86467
H          0.17504         5.94634         0.27570
H          0.19773         8.34779        -0.21261
H          0.20801        10.25369        -1.27205
H          0.15331        12.57345        -0.60475
H          0.12640        14.54086        -0.16429
H          0.21822        16.94675        -0.50254
H          1.46853        19.09498        -0.69983
H          4.84133         0.44297         0.95199
H          3.61189        20.32877        -0.82264
H          7.32261         0.28516         0.47557
H          6.08703        20.35565        -0.61252
H          9.85214         0.85486         1.56278
H          8.52205        20.36191        -0.06794
H         12.27364         0.26534         0.15487
H         10.92206        20.33011         0.57490
H         14.74418         0.27398        -0.13108
H         13.48042        20.31286        -0.02996
H         17.22945         0.28480        -0.20275
H         15.98909        20.32063        -0.07328
H         19.70470         0.29284        -0.38038
H         18.47079        20.35946         0.04697
H         22.17874         0.29573        -0.44201
H         20.92096        20.38226         0.15950
H         24.64400         0.29310        -0.42914
H         23.40156        20.39752         0.18773
H         27.11525         0.30074        -0.64731
H         25.88021        20.39523        -0.03404
H         29.56206         0.33243        -0.90661
H         28.37198        20.39126        -0.06943
H         31.68663         1.48057        -0.50021
H         32.80823         3.64759        -1.10506
H         32.84879         6.11667        -1.11334
H         32.99347         7.99647        -0.13331
H         33.04320        10.44672        -0.14171
H         32.96216        12.37671        -0.63995
H         33.00435        14.79358        -0.56681
H         33.05699        16.75170        -0.07807
H         30.78966        20.41297        -0.31553
H         32.97083        19.20580        -0.37201
