         667
 CSIRO Nanostructure Databank - Neutral Graphene Oxide Data Set
C          5.88130        31.76955         0.60251
C          5.87189        33.13624         0.60520
C          8.38453        27.50987         0.77436
C          8.37530        28.88682         0.71887
C          7.13836        29.62495         0.64263
C          8.35495        31.75087         0.63170
C          7.11183        31.01050         0.62424
C          8.32164        33.14801         0.62348
C          7.09756        33.90153         0.62321
C          8.28698        36.09970         0.58773
C          7.09547        35.30877         0.67555
C          8.34264        37.48905         0.54077
C         10.78164        23.18910         0.11392
C         10.78444        24.62263         0.24845
C          9.63096        25.31296         0.55106
C         10.89202        27.48746         0.63513
C          9.64585        26.73766         1.03730
C         10.89428        28.90132         0.62958
C          9.62977        29.63606         0.69522
C         10.86740        31.77753         0.30691
C          9.60460        31.01820         0.63446
C         10.87438        33.19625         0.82293
C          9.57172        33.90870         0.80908
C         10.84560        36.05949         0.24864
C          9.54651        35.34302         0.40988
C         10.82680        37.53329         0.32509
C          9.58398        38.22458         0.40542
C         10.81933        40.36030         0.24591
C          9.61857        39.64454         0.39885
C         10.84380        41.81984         0.18952
C         13.23493        18.91506        -0.08335
C         13.18357        20.31578        -0.20101
C         11.97519        21.05256        -0.08629
C         13.14602        23.21543        -0.67956
C         11.93518        22.46334        -0.17385
C         13.23333        24.64707        -0.16386
C         12.06798        25.33254         0.16516
C         13.31889        27.46495         0.29042
C         12.08419        26.76162         0.39032
C         13.34958        28.88134         0.46857
C         12.13122        29.60258         0.55456
C         13.33923        31.75482         0.66295
C         12.16256        31.05572         0.58065
C         13.42261        33.24686         0.94818
C         12.12985        33.96076         0.64514
C         13.35711        36.02482         0.28371
C         12.11633        35.31285         0.46783
C         13.32096        37.50227         0.34282
C         12.03977        38.23571         0.26316
C         13.29672        40.34872        -0.09992
C         12.04935        39.64475         0.14541
C         13.23371        41.80287        -0.37233
C         11.97780        42.52390        -0.08786
C         13.29999        44.73047        -0.08690
C         11.97708        44.01993        -0.35716
C         13.31135        46.10616         0.06543
C         15.73903        14.59190         0.12762
C         15.70022        16.01683        -0.04092
C         14.48075        16.73753        -0.03458
C         15.69366        18.83133        -0.31020
C         14.45152        18.14656        -0.13936
C         15.68819        20.31049        -0.26256
C         14.42219        21.07576        -0.37147
C         15.68393        23.20572        -0.76797
C         14.43061        22.43692        -0.51769
C         15.71196        24.66386        -0.50256
C         14.49563        25.34279        -0.21367
C         15.75415        27.46156        -0.06526
C         14.52424        26.75152         0.02309
C         15.77991        28.89229         0.16275
C         14.60444        29.57491         0.46479
C         15.90162        31.82909         0.54938
C         14.62418        31.03438         0.73190
C         15.85037        33.27165         0.19721
C         14.63661        33.93354         0.32878
C         15.70294        36.04950        -0.56879
C         14.54824        35.35049         0.10123
C         15.81363        37.52938        -0.30921
C         14.58257        38.24883         0.09674
C         15.84009        40.35971        -0.04673
C         14.50113        39.69341        -0.16079
C         15.80656        41.84396        -0.21107
C         14.54999        42.57704        -0.36909
C         15.77119        44.66332         0.18154
C         14.53422        44.01253        -0.07026
C         15.78692        46.10664         0.38564
C         14.53011        46.84480         0.29206
C         15.73320        48.98206         0.88766
C         14.51693        48.21317         0.45332
C         15.81250        50.39087         0.36178
C         18.12523        10.22395         0.20747
C         18.12854        11.72939         0.14413
C         16.97646        12.44176         0.29062
C         18.18736        14.59561         0.01543
C         16.93415        13.88676         0.12919
C         18.18603        16.00735        -0.12516
C         16.93578        16.71907        -0.21284
C         18.17767        18.80905        -0.74590
C         16.90278        18.13093        -0.39524
C         18.24418        20.32453        -0.87840
C         16.96907        21.02288        -0.47643
C         18.27197        23.15271        -0.53715
C         16.98473        22.47287        -0.82478
C         18.29281        24.65349        -0.79413
C         16.94141        25.35414        -0.54425
C         18.20147        27.54072        -0.38514
C         16.94586        26.75124        -0.33417
C         18.05932        28.98761        -0.69541
C         16.99749        29.63396        -0.10128
C         18.40544        31.81047        -0.19273
C         17.14287        31.06994         0.20776
C         18.33801        33.27430        -0.43336
C         17.06399        33.97000        -0.23086
C         18.19024        36.08653        -0.84613
C         17.01846        35.33725        -0.47307
C         18.17495        37.46428        -0.93348
C         16.96301        38.19956        -0.63309
C         18.28076        40.36205        -0.65376
C         16.94119        39.69578        -0.89391
C         18.27780        41.78032        -0.27561
C         17.00980        42.52098        -0.09420
C         18.27937        44.70213         0.05377
C         16.98502        43.93268         0.11925
C         18.23540        46.00147         0.87230
C         16.97785        46.79135         0.60301
C         18.23914        48.90195         0.68817
C         17.02432        48.22092         0.70237
C         18.27871        50.34873         0.49263
C         17.00845        51.06131         0.27777
C         18.25053        53.19963         0.10417
C         17.05695        52.49412         0.11722
C         18.28635        54.61745         0.14794
C         20.67657         6.03644         0.94064
C         20.64514         7.43778         0.84112
C         19.46674         8.15253         0.61964
C         20.66404        10.25154         0.25897
C         19.47166         9.56934         0.39848
C         20.70709        11.68851        -0.08184
C         19.39447        12.43420        -0.15772
C         20.65545        14.57791         0.10923
C         19.42130        13.89738         0.00520
C         20.64165        16.00032         0.12582
C         19.44200        16.68130        -0.10062
C         20.72852        18.87468        -0.39028
C         19.47307        18.09802        -0.50519
C         20.69609        20.26058        -0.34081
C         19.36576        20.92609        -0.00955
C         20.66057        23.09753         0.16628
C         19.36626        22.43846        -0.14691
C         20.66789        24.58553         0.21404
C         19.32380        25.32241         0.12863
C         20.82978        27.36963        -0.62033
C         19.49444        26.81364        -0.23868
C         20.99651        28.65574        -1.17255
C         19.13647        29.76017        -1.23954
C         20.70685        31.66048        -1.51870
C         19.41897        31.06247        -0.96725
C         20.70061        33.18290        -1.30912
C         19.43406        33.89551        -0.97494
C         20.69320        36.10318        -0.94217
C         19.41800        35.36295        -1.32270
C         20.69708        37.45200        -1.04788
C         19.41443        38.21928        -1.37525
C         20.74697        40.30817        -0.69972
C         19.44714        39.65470        -0.85115
C         20.73471        41.79239        -0.54545
C         19.46156        42.46655        -0.23050
C         20.78649        44.61599         0.13566
C         19.50827        43.83885         0.40687
C         20.77904        46.07826         0.39224
C         19.50200        46.79613         0.66178
C         20.76567        48.90721         0.28843
C         19.49286        48.15596         0.62408
C         20.73754        50.31640         0.87826
C         19.47324        51.02186         0.43660
C         20.71447        53.18531         0.64702
C         19.55968        52.44856        -0.04285
C         20.76392        54.63846         0.23360
C         19.48773        55.35213         0.16803
C         20.67947        57.50239        -0.02448
C         19.48518        56.76609         0.09348
C         20.72262        58.90832        -0.02766
C         23.11368         3.19204         0.82889
C         21.90566         3.90976         0.94874
C         23.16453         6.03432         0.93056
C         21.89571         5.31316         0.97011
C         23.17560         7.41212         0.89926
C         21.91876         8.23066         1.04497
C         23.21701        10.27987         0.34346
C         21.95184         9.46491         0.14366
C         23.20540        11.70740         0.25880
C         21.95179        12.45584         0.16149
C         23.15275        14.61583         0.35278
C         21.91635        13.84701         0.20615
C         23.15955        15.98630         0.35814
C         21.88211        16.78375         0.49001
C         23.15376        18.84809        -0.15602
C         21.97333        18.16252        -0.14475
C         23.18303        20.26282        -0.69863
C         21.91749        21.00414        -0.33348
C         23.17889        23.06677         0.04128
C         21.93181        22.36648        -0.09212
C         23.13953        24.52921         0.30997
C         21.94928        25.21780        -0.30048
C         23.19468        27.45399        -0.05399
C         21.99174        26.71302        -0.20855
C         23.15802        28.87365        -0.19127
C         22.06997        29.51761        -0.82826
C         23.16918        31.71773        -0.75284
C         22.00309        30.97675        -0.99047
C         23.22698        33.14580        -0.77841
C         21.98386        33.91606        -1.04303
C         23.22156        36.06396        -0.66431
C         21.91160        35.32285        -0.47133
C         23.22952        37.44718        -0.79248
C         21.99468        38.20336        -1.23906
C         23.25330        40.40453        -0.90496
C         21.94310        39.64262        -0.79081
C         23.24729        41.63740         0.00854
C         22.03584        42.49919        -0.26326
C         23.28004        44.57257         0.33994
C         22.05600        43.87875         0.25156
C         23.29791        45.99255         0.52770
C         22.03674        46.71852         0.93422
C         23.24696        48.87895         0.57541
C         22.05539        48.18814         0.62821
C         23.24539        50.33733         0.52507
C         22.02702        51.05326         0.57952
C         23.23461        53.14726         0.28996
C         22.02449        52.45253         0.45734
C         23.24644        54.55787        -0.24543
C         21.93797        55.28656        -0.01778
C         23.25301        57.46359        -0.08385
C         21.93239        56.74200        -0.24343
C         23.17989        58.87759         0.36595
C         21.93924        59.63485         0.09105
C         23.25329        61.71152         0.19379
C         22.00749        61.02862         0.11187
C         24.32475         3.84555         0.71668
C         25.61669         5.93096         0.62396
C         24.40394         5.27772         0.77882
C         25.73671         7.37487         0.81189
C         24.43358         8.16299         0.90642
C         25.67676        10.27817         0.41202
C         24.42688         9.60008         0.52820
C         25.67169        11.69812         0.25170
C         24.42499        12.39758         0.27852
C         25.63235        14.56949        -0.01588
C         24.44691        13.86488         0.61893
C         25.71387        16.03512         0.23180
C         24.43342        16.75931         0.48607
C         25.63466        18.82080        -0.46130
C         24.43593        18.28760         0.39234
C         25.67575        20.32732        -0.35624
C         24.46086        21.00312        -0.35161
C         25.64597        23.20028        -0.09505
C         24.39391        22.41038        -0.09716
C         25.68980        24.53290         0.65583
C         24.38350        25.31579         0.55618
C         25.59413        27.52563         0.50940
C         24.40301        26.77674         0.30320
C         25.57006        28.91497         0.49871
C         24.29294        29.70938         0.32982
C         25.66053        31.77182        -0.14373
C         24.47148        30.94057        -0.57329
C         25.66798        33.17743        -0.30490
C         24.42456        33.87709        -0.54174
C         25.69441        36.02312        -0.52284
C         24.43955        35.31514        -0.54448
C         25.69732        37.43341        -0.65592
C         24.47941        38.16432        -0.74127
C         25.73535        40.29395        -0.47921
C         24.49948        39.58309        -0.67681
C         25.72968        41.74046        -0.23352
C         24.53285        42.43475        -0.06217
C         25.74193        44.58270         0.08369
C         24.51817        43.84848         0.13535
C         25.70607        46.00188         0.17657
C         24.50074        46.71635         0.38535
C         25.69458        48.90726         0.34512
C         24.51224        48.17448         0.46973
C         25.72930        50.33017         0.51757
C         24.47370        51.04425         0.53743
C         25.70041        53.20039         0.51136
C         24.46396        52.46472         0.43970
C         25.71160        54.58619         0.37756
C         24.49081        55.32702         0.14754
C         25.73657        57.45128         0.35574
C         24.49673        56.70253         0.19046
C         25.74304        58.83495         0.38644
C         24.50380        59.61622         0.53856
C         24.45579        61.06249         0.33183
C         27.00104         8.07342         0.34200
C         28.11866        10.29975         0.41081
C         26.93428         9.58431         0.43064
C         28.13962        11.72198         0.26009
C         26.90807        12.38929         0.09772
C         28.21661        14.55493        -0.50468
C         26.89726        13.82049        -0.26511
C         28.18217        16.03433        -0.15317
C         26.97453        16.74615        -0.10110
C         28.16930        18.87445        -0.16046
C         26.95727        18.15581        -0.15847
C         28.14757        20.31928        -0.18662
C         26.94548        21.00639        -0.26070
C         28.19885        23.21382         0.11639
C         26.95357        22.49035        -0.25846
C         28.17461        24.60676         0.38989
C         26.88466        25.37903         0.18150
C         28.11076        27.46637         1.12824
C         26.83612        26.75302         0.82431
C         28.10347        28.96900         1.02454
C         26.78251        29.70206         0.74931
C         28.06492        31.78920         0.33069
C         26.82273        31.09776         0.26390
C         28.08950        33.18008         0.14264
C         26.89617        33.90100        -0.13306
C         28.20130        36.02552        -0.31501
C         26.92991        35.32163        -0.32330
C         28.24225        37.46273        -0.57977
C         26.97323        38.17125        -0.98841
C         28.23351        40.29413        -0.17694
C         26.94266        39.61149        -0.53521
C         28.19155        41.77882        -0.38525
C         26.98619        42.46181        -0.25484
C         28.23907        44.58314        -0.05125
C         26.98380        43.89698        -0.12795
C         28.24965        46.03950         0.33799
C         26.96122        46.73644        -0.04307
C         28.24871        48.92969         0.25815
C         26.96237        48.23077         0.02337
C         28.20821        50.33418         0.55725
C         26.96002        51.01364         0.63393
C         28.20423        53.21989         0.79524
C         26.91580        52.47210         1.03925
C         28.19712        54.55678         0.57235
C         26.96199        55.31933         0.45564
C         26.96448        56.69593         0.41033
C         29.36663        12.46322         0.28725
C         30.61061        14.58878         0.19794
C         29.42457        13.84569         0.07019
C         30.65175        16.00923         0.05024
C         29.40850        16.74463        -0.10177
C         30.65481        18.88122         0.03757
C         29.40960        18.16469        -0.08021
C         30.67585        20.29835         0.09485
C         29.45132        21.07362        -0.33357
C         30.60455        23.16777         0.47975
C         29.40701        22.49151         0.20226
C         30.60984        24.58091         0.61146
C         29.36890        25.27833         0.65819
C         30.57629        27.41216         0.44769
C         29.44494        26.71258         1.14759
C         30.41489        28.79446         0.01072
C         29.29552        29.63132         0.48328
C         30.51467        31.67988        -0.08685
C         29.29579        31.00696         0.30232
C         30.62395        33.13425         0.14581
C         29.35570        33.92981         0.46121
C         30.68679        36.01652        -0.05769
C         29.38461        35.31928        -0.13075
C         30.67138        37.51890        -0.15913
C         29.41236        38.17173        -0.53939
C         30.71176        40.35300        -0.38812
C         29.45002        39.64905        -0.87291
C         30.68733        41.74473        -0.21483
C         29.47662        42.51283        -0.66704
C         30.70823        44.61817         0.12802
C         29.45665        43.93114        -0.17463
C         30.72364        46.02704         0.16092
C         29.47309        46.77037        -0.24045
C         30.69313        48.91693         0.38756
C         29.45001        48.23312         0.16866
C         30.65038        50.32925         0.63319
C         29.45872        51.01956         0.72840
C         29.49126        52.48799         1.09522
C         31.84903        16.72750         0.17862
C         33.09188        18.87370         0.33265
C         31.87608        18.15043         0.17644
C         33.09247        20.25774         0.46909
C         31.86992        20.97436         0.37876
C         33.11998        23.17504         0.47919
C         31.86262        22.41915         0.82575
C         33.08708        24.59404         0.35723
C         31.84621        25.31289         0.51277
C         32.99098        27.45352        -0.11607
C         31.78896        26.73744         0.28289
C         32.95838        28.79070        -0.45698
C         31.65395        29.49272        -0.52400
C         32.79371        31.61710        -1.00018
C         31.64009        30.96208        -0.45832
C         32.79098        32.99477        -1.12090
C         31.88290        33.84649        -0.35645
C         33.14560        36.06385        -0.48741
C         31.95364        35.33639        -0.39897
C         33.15016        37.50951        -0.36818
C         31.95600        38.20889        -0.36878
C         33.11088        40.30110         0.21866
C         31.92334        39.63669        -0.24441
C         32.90484        41.60284         0.74202
C         31.81007        42.42966         0.36021
C         33.14336        44.58850         0.93315
C         31.87400        43.85869         0.46007
C         33.10415        46.06890         0.67425
C         31.93415        46.76292         0.41237
C         31.89775        48.20182         0.42984
C         34.38793        20.99975         0.74438
C         35.53156        23.19801         0.21864
C         34.33848        22.48498         0.43141
C         35.52413        24.60143         0.07360
C         34.29815        25.29533         0.12723
C         35.49491        27.39440        -0.63124
C         34.32520        26.80501         0.15093
C         35.48843        28.86707        -0.96418
C         34.14607        29.54108        -0.84860
C         35.84078        31.95921        -1.02444
C         33.94494        30.80756        -1.34545
C         35.74886        33.28288        -0.64170
C         34.67634        34.15080        -1.04394
C         35.60744        36.12299        -0.00127
C         34.45951        35.41613        -0.53227
C         35.62998        37.48829         0.08295
C         34.45801        38.28667        -0.43632
C         35.64902        40.36919         0.36313
C         34.38564        39.67368         0.19016
C         35.80364        41.79349         0.31138
C         34.77961        42.70270         0.69224
C         34.42063        43.98330         0.34878
C         36.76615        25.34962        -0.11915
C         38.04286        27.39658        -0.82451
C         36.77735        26.67206        -0.42747
C         37.98272        28.89149        -0.56512
C         36.78469        29.61977        -0.76667
C         38.00871        31.64124        -0.01356
C         36.84749        31.03390        -0.54151
C         38.00661        33.03894         0.58425
C         36.73174        33.83489         0.31745
C         38.06091        36.00541         0.68588
C         36.75479        35.32155         0.48296
C         38.01904        37.43754         0.76263
C         36.84932        38.17411         0.47757
C         36.83773        39.59023         0.46433
C         39.17935        29.54611        -0.22021
C         40.42805        31.65232         0.44655
C         39.20766        30.91763         0.09000
C         40.47111        33.00263         0.47632
C         39.24466        33.82782         0.13108
C         39.22731        35.26388         0.63869
O         21.48952        42.46859        -1.62797
O         15.43794        31.46741         1.90181
O         22.69691        57.22547        -1.40953
O         14.16570        37.94815         1.50337
O         35.38792        27.83014        -2.01857
O         33.85875        42.07671         1.61712
O         34.98799        31.46921        -2.01516
O         26.28289        23.12306        -1.42795
O         27.39169        29.61978         2.10038
O         33.71899        33.62368        -1.93937
O         25.26438         7.87854         2.09987
O         18.22227        31.35510         1.18236
O         27.26403        26.92158         2.20225
O         21.45582        33.83959        -2.41530
O         20.84362        45.59006        -0.98788
O         13.83857        42.20773        -1.64002
O         20.07260        11.97999        -1.39384
O         10.11939        35.54370        -0.93524
O         25.28295        16.34291         1.61621
O         20.76483        23.83490         1.45308
O         17.63855         9.67823        -1.08263
O         30.70709        36.86374         1.16262
O         31.73330        33.41069         1.06105
O         18.86766        18.18523        -1.88180
O         10.21651        33.52183         2.08789
O         25.92896        14.13376        -1.36583
O         23.70363        59.11550         1.69912
O         23.45832        24.95084         1.66980
O         18.97119        27.56874         0.91670
O         36.23264        34.42529         1.56328
O         16.33291        22.86051        -2.07730
O         20.01411        29.05104        -2.07079
O         30.67021        28.94124        -1.45323
O         16.52885        20.78907         0.88593
O         26.94756        47.51530        -1.29278
O         34.66198        27.16860         1.53982
H         33.98339        26.76828         2.12481
O         12.94908        23.34503        -2.13130
H         13.82361        23.53182        -2.53562
O         21.75642        17.04324         1.93120
H         22.53710        17.57568         2.20388
O         24.57493        18.80609         1.73441
H         25.13050        18.15439         2.22669
O         29.33171        34.13848         1.90198
H         30.23421        34.43339         2.16181
O         39.16712        33.92457        -1.32396
H         39.98480        34.35851        -1.64532
O         18.37461        45.11023        -1.33220
H         18.68152        44.34819        -1.86705
O         26.98023        38.19214        -2.46323
H         26.27266        38.80514        -2.75635
O         22.13552        38.30865        -2.71320
H         21.22687        38.50425        -3.06097
O         19.34461        38.30125        -2.84532
H         19.28823        37.35589        -3.15082
O         23.37534        40.83300        -2.28793
H         23.07967        40.06966        -2.84067
O         29.43522        46.70097        -1.68870
H         28.58191        47.11872        -1.97040
O         16.61527        39.85936        -2.29397
H         17.37383        39.51314        -2.81584
O         25.92631        24.20022         2.03727
H         25.06082        24.27111         2.50565
O         38.12734        32.82368         2.00648
H         37.46775        33.41776         2.44140
O         21.90616         8.73178         2.41381
H         22.10119         7.98209         3.01424
O         34.73146        38.52914        -1.86548
H         33.96709        39.02190        -2.23301
O         30.61399        53.13990         0.49834
H         30.52815        53.07160        -0.47440
O         23.93672        30.22031         1.64513
H         23.95037        29.47599         2.28270
O         26.74804        52.44894         2.50912
H         26.68376        53.38137         2.80770
O         16.24709        40.14379         1.35062
H         15.62842        39.50723         1.77381
O         20.69275        31.43544        -2.94775
H         21.30540        32.09638        -3.34309
O          9.72500        26.61889         2.51706
H         10.56277        26.15227         2.72533
O         20.41639        53.13605         2.07947
H         21.04919        53.72564         2.54116
O         19.35917        35.47108        -2.79603
H         20.14123        34.96081        -3.12764
O         31.86056        22.34201         2.30229
H         30.99246        21.98092         2.58152
O         20.65814        50.20300         2.32717
H         20.54999        51.12314         2.66608
O         18.69540        24.86023        -2.16707
H         18.11049        24.30291        -2.72862
O         15.57755        49.14447         2.35884
H         16.30527        49.73089         2.65915
O         28.45746        40.06075         1.25977
H         27.68657        40.42287         1.74562
O         20.76478        49.07520        -1.15885
H         20.78376        48.18103        -1.56428
O         18.15071        45.66507         2.29888
H         18.20477        46.50259         2.80644
O         22.00468         8.98564        -1.23240
H         21.73177         9.72158        -1.82094
O         39.18423        26.80679        -0.20297
H         39.05221        26.82866         0.76685
O         29.83268        26.62656         2.55343
H         29.00522        26.44666         3.05713
O         24.82248        30.41509        -1.88579
H         24.88366        31.16653        -2.51173
O         10.83439        31.94990        -1.15394
H         10.77686        31.06014        -1.56198
O         16.25833        10.09641        -1.22573
H         16.30843        10.76070        -1.95573
O         15.34103        35.97100        -2.01068
H         16.11311        36.29526        -2.52375
O         23.15976        20.15166        -2.15983
H         23.87964        19.51659        -2.40040
O         10.91264        44.66575         0.34085
H         11.09108        44.61062         1.30165
O         29.62362        21.23684        -1.78899
H         28.87620        21.78231        -2.11645
O         29.59589        42.58807        -2.16382
H         28.93616        43.24600        -2.47473
O         25.31238        18.43826        -1.84044
H         26.09110        18.64580        -2.40021
O         23.11663        41.12778         1.36473
H         23.05309        41.89107         1.97669
O         28.44066        14.53891        -1.94738
H         27.55107        14.58472        -2.36853
O         21.90873        46.58855         2.39861
H         22.57727        47.17724         2.80899
O         33.17024        44.49028         2.39360
H         33.37259        43.54815         2.60750
O         35.47864        20.36967         0.06607
H         35.31325        20.42262        -0.89734
O         22.01176        24.91244        -1.72583
H         21.18302        25.21924        -2.15517
O         19.55782        43.51315         1.82177
H         19.13278        44.24438         2.33645
O         26.75655        25.68289        -1.22396
H         26.70173        24.82417        -1.71530
O         24.66822        13.89241         2.06086
H         23.86482        13.54165         2.49861
O         27.27013         7.70054        -1.02349
H         26.65221         8.18532        -1.60833
O         13.58906        33.36038         2.39589
H         14.35618        32.78115         2.63608
O         18.70175        25.21867         1.41522
H         19.23520        25.72382         2.06449
O         18.50464        20.67382        -2.24589
H         18.90807        19.87801        -2.67095
O         19.09255        20.59479         1.37109
H         19.52086        21.26307         1.94590
O         28.35730        46.12802         1.78602
H         27.77874        45.44355         2.18176
O         21.74005        35.14056         0.96379
H         21.84964        36.00918         1.40433
O         29.34702        39.81218        -2.29849
H         29.42752        40.78097        -2.49499
O         19.90238        52.41538        -1.45700
H         19.32095        51.76045        -1.89738
O         23.34582        54.39594        -1.70049
H         22.51620        53.97318        -2.01007
H          4.93057        31.21579         0.59476
H          4.91446        33.67814         0.60002
H          7.43089        26.95966         0.76989
H          6.19332        29.06071         0.63546
H          6.12574        35.82773         0.73131
H          7.40982        38.06857         0.62029
H          9.85323        22.65001         0.35959
H          8.68455        24.75735         0.64377
H          8.67317        40.20099         0.48785
H          9.89743        42.36299         0.33691
H         12.28914        18.36930         0.05713
H         11.04750        20.51332         0.16151
H         11.75651        44.14491        -1.45475
H         12.35896        46.65647         0.03843
H         14.78987        14.04857         0.25128
H         13.53608        16.18607         0.08618
H         13.56003        48.75570         0.40780
H         14.87071        50.94997         0.24716
H         17.41092         9.87825         1.00307
H         16.03318        11.91603         0.50414
H         16.10414        53.04654         0.12817
H         17.33240        55.16780         0.13743
H         19.73136         5.47452         0.87990
H         18.50639         7.61796         0.57088
H         18.52388        57.30074         0.12755
H         19.77540        59.46912        -0.02608
H         23.08227         2.09370         0.80035
H         20.95187         3.36443         0.99218
H         23.24883        62.80541         0.08037
H         21.08833        61.61570        -0.02671
H         25.25511         3.27111         0.60121
H         26.51033         5.36358         0.32448
H         26.70436        59.37099         0.40093
H         25.40094        61.61719         0.23993
H         27.86716         7.69981         0.94638
H         29.07635         9.75969         0.45136
H         29.15379        55.09781         0.49964
H         27.91713        57.24399         0.46349
H         30.29221        11.92477         0.54282
H         31.53800        14.06681         0.48093
H         31.59561        50.87229         0.78265
H         29.64788        52.54815         2.21056
H         32.79363        16.17981         0.31555
H         34.04355        18.32510         0.39189
H         34.02847        46.63221         0.87486
H         32.83761        48.74369         0.61314
H         34.60623        20.90381         1.84484
H         36.48516        22.65040         0.19308
H         36.80022        42.18447         0.05670
H         34.99707        44.54919        -0.39506
H         37.71832        24.80067        -0.05498
H         38.17567        27.25641        -1.93430
H         38.95397        37.98317         0.96368
H         37.78683        40.12169         0.63540
H         40.09915        28.94614        -0.14867
H         41.33920        31.06751         0.64717
H         41.41824        33.52065         0.69600
H         40.19281        35.78952         0.72948
