         404
 CSIRO Nanostructure Databank - Neutral Graphene Oxide Data Set
C          1.75696         3.23470         2.16200
C          0.44264         3.62100         2.04955
C          1.12919         5.54225         0.74379
C          0.11723         4.75879         1.27051
C          0.91741         7.81222         0.20988
C         -0.22006         8.59481         0.12144
C          1.00430        10.59498         0.76105
C         -0.15389         9.99598         0.33969
C          1.10340        12.10957         0.70517
C         -0.16237        12.84054         1.10790
C          1.14133        14.90200         1.09773
C         -0.12206        14.17935         1.24151
C          1.16577        16.31338         0.76630
C          0.02080        16.99997         0.33633
C          1.31049        19.03149        -0.05781
C          0.11113        18.32332        -0.11417
C          1.40117        20.39664        -0.69636
C          0.19623        21.26954        -0.41390
C          1.52353        23.13998        -1.22087
C          0.26619        22.57363        -0.73629
C          1.51380        24.28512        -2.00185
C          0.45103        25.21670        -2.25238
C          1.79676        27.35873        -1.95829
C          0.64835        26.57506        -2.34979
C          1.60466        28.78582        -1.69966
C          0.32410        29.36677        -1.75634
C          1.18998        31.43969        -0.86572
C          0.11393        30.65607        -1.26992
C          1.10931        33.73703        -1.02555
C         -0.02086        34.43158        -1.49247
C          1.46397        36.09699        -2.41604
C          0.16190        35.58371        -2.23585
C          1.62277        37.36809        -3.06954
C          4.09483         3.46817         1.47891
C          2.80554         4.00644         1.56611
C          3.57713         6.16984         0.56910
C          2.51493         5.28468         0.96257
C          3.42556         7.59785         0.44271
C          2.21128         8.33429         0.52843
C          3.56061        10.53560         0.99903
C          2.22623         9.77446         0.92360
C          3.57291        12.01356         1.05370
C          2.29019        12.70095         1.47560
C          3.59093        14.87829         1.16757
C          2.33119        14.20101         1.22368
C          3.62170        16.32284         1.09863
C          2.40966        17.01171         0.79969
C          3.69684        19.10643         0.64417
C          2.47308        18.39332         0.46158
C          3.71930        20.52154         0.32541
C          2.66407        21.15691        -0.34799
C          3.93283        23.27959        -0.39112
C          2.75603        22.52181        -0.73730
C          4.06383        24.70017        -0.64975
C          3.29761        25.36453        -1.58825
C          4.05938        27.58829        -0.98068
C          3.02486        26.78728        -1.54410
C          3.96934        29.02202        -1.00214
C          2.70137        29.61150        -1.27016
C          3.68989        31.84866        -0.72049
C          2.54297        31.00909        -0.98419
C          3.59894        33.35446        -0.72304
C          2.42851        34.12486        -1.28472
C          3.88447        36.05943        -1.92841
C          2.59909        35.40063        -1.90022
C          3.98254        37.37922        -2.49217
C          2.83383        37.98815        -3.10601
C          6.31193         3.48734         0.48824
C          5.10661         4.15115         0.77503
C          5.98474         6.25495        -0.07744
C          4.89732         5.55811         0.42342
C          5.93546         7.71603        -0.28415
C          4.64128         8.41382         0.11522
C          5.93115        10.53738         0.28331
C          4.75156         9.84014         0.47743
C          5.94719        12.02311         0.36314
C          4.72856        12.71988         0.83215
C          6.05189        14.85225         1.09527
C          4.78555        14.15843         1.02173
C          6.06524        16.26875         1.64679
C          4.82942        17.02527         1.23221
C          6.08534        19.17298         1.42695
C          4.86837        18.43656         1.10094
C          5.74919        20.64249         1.76480
C          4.82329        21.29277         0.76368
C          6.04969        23.43481         0.98753
C          4.91212        22.64683         0.44431
C          6.06404        24.91356         0.88706
C          4.82887        25.60456         0.30895
C          6.28275        27.68064         0.02401
C          5.13727        26.95393        -0.30106
C          6.39269        29.09524        -0.50083
C          5.06482        29.80936        -0.60240
C          6.19174        31.99749        -0.31901
C          4.95755        31.22761        -0.54087
C          6.18022        33.36311        -0.50985
C          4.91726        34.10549        -0.72887
C          6.26087        36.14859        -1.35220
C          5.01835        35.45648        -1.34874
C          6.31828        37.50789        -1.81071
C          5.17604        38.09464        -2.39373
C          8.59922         3.49024        -0.43379
C          7.38516         4.12475        -0.17295
C          8.44498         6.35626        -0.84306
C          7.20308         5.54933        -0.51210
C          8.44981         7.79063        -0.46109
C          7.20630         8.47372        -0.18613
C          8.44280        10.56705         0.30801
C          7.17703         9.84951         0.04063
C          8.52369        12.03966         0.40753
C          7.25022        12.79242         0.40693
C          8.51779        14.86187         1.20046
C          7.23398        14.18674         0.90280
C          8.54091        16.35038         1.23520
C          7.34619        17.04223         1.37639
C          8.63401        19.11108         1.74105
C          7.31583        18.48930         1.55249
C          8.79443        20.40353         2.27149
C          6.93576        21.50070         2.04065
C          8.50459        23.43726         1.82336
C          7.25638        22.68771         1.45777
C          8.62636        24.84154         1.26491
C          7.40469        25.58337         0.78494
C          8.59151        27.79255         0.87696
C          7.42960        27.06031         0.60309
C          8.63564        29.21836         0.62861
C          7.48843        29.88964         0.14655
C          8.64509        32.01783         0.22081
C          7.44198        31.30276         0.03226
C          8.65743        33.48500         0.12531
C          7.38326        34.19286        -0.28707
C          8.69758        36.22490        -0.95611
C          7.46800        35.54485        -0.88765
C          8.70136        37.66297        -1.20782
C          7.50154        38.25675        -1.61401
C         10.99923         3.55135        -1.02013
C          9.77390         4.20720        -0.83062
C         10.91017         6.36773        -1.12360
C          9.74161         5.64468        -0.91564
C         10.83764         7.84736        -1.10600
C          9.65467         8.45833        -0.46160
C         11.00150        10.59517        -0.08411
C          9.74824         9.82381         0.05610
C         11.00183        11.98647         0.31524
C          9.73891        12.67513         0.53757
C         11.05186        14.86300         0.81405
C          9.79245        14.10200         0.96911
C         11.05035        16.29190         1.05533
C          9.82819        17.01245         1.20781
C         11.10607        19.12668         1.52540
C          9.85532        18.42130         1.44450
C         11.12307        20.55378         1.73170
C          9.92456        21.21729         2.06262
C         11.11663        23.47848         2.05287
C          9.81591        22.70768         2.16934
C         11.09728        25.00097         1.87724
C          9.81219        25.65004         1.58609
C         11.10890        27.89666         1.46696
C          9.75679        27.10259         1.46197
C         11.10777        29.27688         0.95564
C          9.87451        29.94417         0.73268
C         11.12647        32.04424         0.34131
C          9.88084        31.34082         0.42819
C         11.14099        33.44217        -0.01340
C          9.93150        34.15643        -0.15839
C         11.17147        35.99401        -1.05520
C          9.91995        35.47724        -0.68382
C         11.13592        38.14088        -1.08806
C          9.81010        38.54552        -0.90431
C         13.42770         3.60061        -1.46365
C         12.20308         4.26859        -1.24237
C         13.38299         6.43754        -1.39376
C         12.17535         5.71077        -1.26033
C         13.39033         7.93696        -1.64805
C         12.09692         8.65294        -1.23644
C         13.44691        10.57670        -0.27959
C         12.14561         9.96756        -0.54968
C         13.48379        12.02957         0.17357
C         12.19220        12.72877         0.30770
C         13.53250        14.78529         0.73431
C         12.21118        14.14686         0.53333
C         13.56466        16.22435         1.13333
C         12.29272        17.00029         1.15299
C         13.61369        19.07737         1.64598
C         12.32034        18.38367         1.37488
C         13.62588        20.57210         1.73495
C         12.34809        21.32872         1.64845
C         13.54895        23.47188         1.33702
C         12.33106        22.70679         1.70197
C         13.56159        24.96853         1.21516
C         12.33276        25.73918         1.49063
C         13.59946        27.82501         1.10143
C         12.35881        27.10978         1.36223
C         13.59226        29.22695         0.88687
C         12.34417        29.94691         0.77960
C         13.61375        32.02738         0.31917
C         12.35295        31.34658         0.49218
C         13.62460        33.44589         0.01768
C         12.39279        34.11967        -0.16474
C         13.57665        36.29778        -0.51623
C         12.39945        35.48580        -0.57708
C         13.55110        37.75274        -0.52915
C         12.35672        38.56287        -0.54602
C         15.85091         3.66051        -1.94477
C         14.62924         4.31627        -1.62087
C         15.85724         6.47598        -1.53262
C         14.61020         5.75342        -1.51604
C         15.86138         7.87146        -1.27078
C         14.65638         8.60099        -1.15864
C         15.89842        10.70234        -0.78334
C         14.67873         9.94815        -0.78705
C         15.88817        12.12579        -0.57757
C         14.72266        12.79472        -0.11255
C         15.91960        14.93432        -0.14039
C         14.74964        14.16525         0.15039
C         15.99302        16.33906         0.23200
C         14.89133        16.92552         1.02477
C         16.10496        19.17079         0.91675
C         14.92417        18.39223         1.34747
C         16.13731        20.57480         1.10361
C         14.92981        21.30253         1.58708
C         16.05789        23.53595         0.95354
C         14.87073        22.78864         1.46445
C         16.07293        25.00951         1.15521
C         14.85684        25.69857         1.20513
C         16.08093        27.82659         0.96815
C         14.84154        27.12089         1.11436
C         16.07206        29.23063         0.77150
C         14.82908        29.92387         0.69336
C         16.08845        31.99401        -0.03633
C         14.81401        31.32284         0.40421
C         16.08062        33.49547         0.10640
C         14.83256        34.18235        -0.07700
C         16.01584        36.34753        -0.17087
C         14.80439        35.61791        -0.23859
C         16.00187        37.76988        -0.15617
C         14.76257        38.43420        -0.29889
C         18.24408         3.74433        -2.57972
C         17.04127         4.37637        -2.11603
C         18.30319         6.48663        -1.93864
C         17.07481         5.78674        -1.82342
C         18.42015         7.86365        -1.44367
C         17.12354         8.57973        -1.04092
C         18.31889        10.77565        -1.26937
C         17.11784        10.04678        -1.04056
C         18.25237        12.19131        -1.28684
C         17.06401        12.88132        -0.88278
C         18.08275        15.19509        -1.36351
C         17.03372        14.30119        -0.73036
C         18.31070        16.48393        -0.59555
C         17.16475        17.08740         0.04124
C         18.46457        19.20944         0.23302
C         17.24239        18.48872         0.42654
C         18.52021        20.61431         0.49336
C         17.31925        21.28163         0.86515
C         18.60648        23.45351         1.05694
C         17.31439        22.76290         0.80262
C         18.58845        24.96766         1.20887
C         17.30890        25.70863         1.10755
C         18.58418        27.82384         0.95056
C         17.32369        27.10912         1.00511
C         18.57272        29.24829         0.87031
C         17.32973        29.95548         0.70666
C         18.55524        32.08799         0.57233
C         17.34114        31.33594         0.47711
C         18.53722        33.52058         0.45808
C         17.28380        34.18486         0.16911
C         18.55219        36.44313         0.26510
C         17.28631        35.63070        -0.09520
C         18.36986        37.87718         0.54458
C         17.17928        38.50406         0.20240
C         19.39070         4.46740        -2.79580
C         20.63171         6.64182        -2.68524
C         19.44887         5.86282        -2.48062
C         20.68183         7.99301        -2.40753
C         19.58255         8.68676        -1.81513
C         20.74588        10.88164        -1.76405
C         19.55217        10.08172        -1.60590
C         20.71270        12.23623        -1.78782
C         19.42810        12.95695        -1.74722
C         20.61892        15.24139        -1.76533
C         19.36287        14.46564        -1.77618
C         20.67803        16.49239        -1.26712
C         19.52297        17.15433        -0.67624
C         20.83122        19.26137        -0.35092
C         19.63239        18.53318        -0.23730
C         20.89117        20.62316        -0.06499
C         19.75415        21.34158         0.33765
C         21.00185        23.51467         0.60636
C         19.83659        22.76337         0.64642
C         21.00517        24.92570         0.76565
C         19.85342        25.67607         0.96250
C         21.02900        27.87323         0.94471
C         19.82283        27.12591         0.94857
C         21.01798        29.25106         0.94515
C         19.79768        29.97366         0.88914
C         20.95765        32.18679         1.02959
C         19.77869        31.41410         0.83809
C         20.91413        33.56252         1.02453
C         19.70679        34.26587         0.75622
C         20.61286        36.44435         1.58447
C         19.67081        35.71562         0.87718
C         20.51036        37.85754         1.71523
C         19.43070        38.55587         1.22260
O          4.07910        34.02270         0.49201
O          0.75033         6.49744        -0.20849
O          7.75089        20.93898         3.02552
O          2.96178         9.93904         2.19944
O         13.39444        24.09060         0.00775
O          0.85834        32.62813        -0.21719
O         11.13666         8.58334        -2.36117
O          5.01131         8.19321        -1.30836
O         10.32708        27.75533         2.66996
O          9.19067         9.93373         1.41206
O          5.71463        24.32489         2.17511
O         15.15252        22.17976         2.75522
O         13.65738        15.17634         2.15567
O          7.82280        34.16949         1.12268
O          7.53130         5.94210        -1.90209
O         13.63559        10.94858         1.14401
O         15.31176        17.40147         2.35257
O         16.55058        23.19629        -0.39466
O          2.73345        24.62242        -2.63488
O         18.26545        36.04279        -1.10872
O          6.50765        12.62592        -0.86417
O          8.94579        23.26425         3.19144
O          9.23089        14.25889         2.34361
O         11.23997        37.03194        -1.96921
O         18.01346         7.99090        -0.03590
O         13.62075        19.73711         2.95053
O         19.16179        13.71848        -3.02549
O          8.26855        24.88324        -0.19438
O         11.31468        24.35458         3.21003
O         18.64973        24.07054         2.38217
O          1.36124        12.41375        -0.69799
H          0.58324        12.13054        -1.22212
O         16.12662        31.78085        -1.50534
H         16.91805        32.25004        -1.84728
O         13.50224         8.06576        -3.10063
H         12.57828         8.05602        -3.44915
O          5.99797        16.13354         3.10642
H          6.81946        15.68364         3.40027
O          3.92518        25.90826         1.40383
H          4.14876        25.27627         2.13100
O          4.99685        20.55725         3.01398
H          5.64805        20.37998         3.72770
O          6.86006        28.95304        -1.90493
H          6.20979        28.38087        -2.36697
O          2.05982        12.47077         2.88402
H          2.87772        12.69423         3.37358
O          1.41432        20.15079        -2.14213
H          1.50050        21.02389        -2.58153
O         17.45415        15.64352        -2.61259
H         17.69420        14.96876        -3.29125
H          2.02298         2.29738         2.67032
H         -0.35972         3.01335         2.48935
H         -0.92926         4.99500         1.03983
H         -1.15986         8.13500        -0.20770
H         -1.05684        10.59398         0.15200
H         -1.11304        12.29959         1.21971
H         -1.03699        14.74454         1.47262
H         -0.94619        16.48134         0.28104
H         -0.78416        18.79767        -0.53960
H         -0.74191        20.82735        -0.05070
H         -0.61282        23.23070        -0.66039
H         -0.57966        24.83925        -2.33559
H         -0.25750        27.14069        -2.60543
H         -0.55449        28.79834        -2.08142
H         -0.90443        31.05389        -1.17488
H         -1.02343        34.05359        -1.25582
H         -0.69947        36.13984        -2.63150
H          0.73292        37.84594        -3.50420
H          4.29375         2.46263         1.87691
H          2.94849        38.97643        -3.57354
H          6.41866         2.43479         0.78967
H          5.22750        39.12721        -2.76851
H          8.69303         2.41478        -0.22189
H          7.48576        39.33347        -1.83768
H         11.03523         2.45277        -0.97519
H          9.57780        39.55496        -0.53365
H         13.43937         2.50218        -1.52289
H         12.41906        39.55763        -0.07976
H         15.84347         2.57274        -2.11082
H         14.74545        39.53242        -0.23411
H         18.22127         2.66674        -2.79854
H         17.08307        39.58926         0.35916
H         20.29152         3.97444        -3.18930
H         21.51188         6.14975        -3.12417
H         21.59655         8.54758        -2.65957
H         21.71584        10.37185        -1.84818
H         21.64415        12.80245        -1.92126
H         21.51299        14.78841        -2.21488
H         21.63662        17.02492        -1.30732
H         21.75365        18.76892        -0.68365
H         21.85427        21.13873        -0.17837
H         21.96140        23.03391         0.37007
H         21.96969        25.43570         0.63518
H         21.99459        27.35121         0.96573
H         21.97635        29.78629         0.95493
H         21.91625        31.68944         1.22685
H         21.83756        34.12764         1.21003
H         21.45974        35.93734         2.06742
H         21.30037        38.39187         2.26095
H         19.35202        39.64115         1.38042
