         204
 CSIRO Nanostructure Databank - Neutral Graphene Oxide Data Set
C        -10.48976         0.71691         1.98892
C         -9.46052         1.49002         1.31990
C         -8.47808         0.72106         0.50772
C         -7.28517         1.42954        -0.03612
C         -6.08324         0.66519        -0.42941
C         -5.06965         1.36111        -1.07431
C         -3.82499         0.67920        -1.50259
C         -2.50013         1.48951        -1.74138
C         -1.20361         0.73093        -1.63064
C          0.04037         1.44892        -1.26709
C          1.20539         0.70402        -1.03599
C          2.51709         1.38246        -1.03904
C          3.74051         0.69783        -0.58321
C          4.94093         1.42547        -0.40688
C          6.14129         0.72224        -0.08806
C          7.36155         1.42969         0.12380
C          8.56889         0.72350         0.37177
C          9.79441         1.44040         0.54514
C         11.02178         0.69735         0.68406
C         -9.40632         2.85421         1.37855
C         -8.23449         3.62301         0.89332
C         -7.08827         2.87516         0.27974
C         -6.13988         3.57328        -0.61154
C         -5.31315         2.74962        -1.37106
C         -3.54339         3.79129        -1.73753
C         -2.42411         2.96542        -1.51783
C         -1.21679         3.61389        -1.13690
C          0.03258         2.89006        -1.10659
C          1.22809         3.60224        -0.88433
C          2.52489         2.92319        -1.00961
C          3.75120         3.60378        -0.58054
C          4.95799         2.87395        -0.43131
C          6.17333         3.56291        -0.15891
C          7.36647         2.86185         0.09633
C          8.58685         3.56855         0.39499
C          9.77725         2.84541         0.58395
C         -8.29195         5.05456         0.58137
C         -7.25838         5.71282        -0.05551
C         -6.09645         5.01114        -0.61999
C         -4.95559         5.73593        -1.02136
C         -3.66592         5.12798        -1.28054
C         -2.43972         5.79093        -0.96629
C         -1.22469         5.03528        -0.91416
C         -0.00748         5.71502        -0.59534
C          1.22285         5.00022        -0.57954
C          2.44288         5.69512        -0.30147
C          3.70244         5.00968        -0.30357
C          4.89429         5.72206        -0.04584
C          6.21867         5.06031        -0.32038
C          7.38174         5.71131         0.38731
C          8.54020         4.98677         0.59308
C         -7.30053         7.15751        -0.11170
C         -6.21072         7.89778        -0.48476
C         -4.99086         7.21247        -0.95838
C         -3.67748         7.96974        -0.81234
C         -2.42902         7.19447        -0.68414
C         -1.24876         7.85601        -0.36180
C         -0.00617         7.12977        -0.35376
C          1.20136         7.81513        -0.13115
C          2.42472         7.10195        -0.06105
C          3.63311         7.79088         0.28111
C          4.85689         7.09769         0.29654
C          6.07919         7.77714         0.70186
C          7.28068         7.08439         0.75636
C         -6.16780         9.33341        -0.30546
C         -4.99063        10.01003        -0.18139
C         -3.71012         9.34297        -0.26136
C         -2.54107         9.94194         0.13034
C         -1.26253         9.27267        -0.00021
C         -0.08618         9.94039         0.21908
C          1.22762         9.32425        -0.16498
C          2.41626         9.90737         0.54002
C          3.58138         9.19657         0.65760
C          4.80003         9.81717         1.13944
C          5.98643         9.14763         1.13751
C        -10.49017        -0.64185         1.98037
C         -9.49099        -1.43807         1.27828
C         -8.40243        -0.74931         0.60399
C         -7.31072        -1.44652         0.08740
C         -6.10392        -0.76462        -0.37699
C         -4.96643        -1.46390        -0.78414
C         -3.75278        -0.77624        -1.16439
C         -2.54320        -1.47608        -1.18236
C         -1.24316        -0.79449        -1.40720
C         -0.02324        -1.44331        -0.87148
C          1.16152        -0.70924        -0.76528
C          2.37130        -1.35585        -0.20904
C          3.69800        -0.68836        -0.28361
C          4.87718        -1.39427         0.00117
C          6.12367        -0.70145         0.03532
C          7.35329        -1.39379         0.25624
C          8.55709        -0.70548         0.40789
C          9.81213        -1.43751         0.60050
C         11.03510        -0.66650         0.68311
C         -9.55981        -2.80399         1.25118
C         -8.63119        -3.58790         0.36983
C         -7.31621        -2.88979         0.11563
C         -6.19021        -3.61713        -0.23207
C         -5.04617        -2.95657        -0.97098
C         -3.72463        -3.65067        -0.78963
C         -2.51241        -2.91067        -0.93859
C         -1.27706        -3.58882        -0.86587
C         -0.04802        -2.87851        -0.70146
C          1.14363        -3.59413        -0.45444
C          2.35024        -2.87463        -0.05001
C          3.62095        -3.59578         0.03530
C          4.82849        -2.82738         0.50316
C          6.10122        -3.59517         0.27557
C          7.41424        -2.88644         0.08055
C          8.51580        -3.54978         0.90253
C          9.81591        -2.80207         0.74681
C         -8.47692        -5.02420         0.76003
C         -7.31883        -5.72519         0.48616
C         -6.14327        -5.03709        -0.02173
C         -4.94113        -5.74908        -0.20844
C         -3.71821        -5.04979        -0.55487
C         -2.50363        -5.77787        -0.61176
C         -1.26036        -5.07851        -1.08937
C         -0.00219        -5.76753        -0.64981
C          1.18765        -5.03212        -0.47509
C          2.41985        -5.72010        -0.26323
C          3.64447        -4.98532        -0.05862
C          4.88338        -5.71221         0.09157
C          6.11561        -4.96810         0.22101
C          7.39449        -5.69801         0.28925
C          8.55669        -5.02736         0.58237
C         -7.25931        -7.14777         0.67698
C         -6.10311        -7.86123         0.41620
C         -4.90133        -7.16355         0.01739
C         -3.69378        -7.87708        -0.11506
C         -2.47786        -7.17517        -0.40692
C         -1.24067        -7.89609        -0.43331
C         -0.00313        -7.17609        -0.50038
C          1.22641        -7.87260        -0.33502
C          2.44558        -7.14195        -0.24900
C          3.68426        -7.84373        -0.11586
C          4.90298        -7.11446         0.02093
C          6.16766        -7.82878         0.08290
C          7.35853        -7.13526         0.18087
C         -6.05363        -9.29760         0.56775
C         -4.89624        -9.98939         0.38065
C         -3.66233        -9.30810         0.06329
C         -2.46248        -9.99928        -0.04581
C         -1.22517        -9.31160        -0.25174
C          0.00746       -10.00094        -0.22384
C          1.23606        -9.30583        -0.25126
C          2.48554        -9.98066        -0.17050
C          3.69088        -9.27418        -0.11576
C          4.96300        -9.95964        -0.03996
C          6.13667        -9.27379         0.03906
O          7.79023        -3.09558        -1.31990
H          7.12452        -2.64855        -1.88333
O         -1.02925        -0.20847        -2.73327
O          2.70934         2.17089        -2.25895
O         -3.33356         1.03620        -2.83217
O         -4.63029         3.28810        -2.46871
O          2.12681        -1.95419         1.11894
O         -7.00415         3.23755         1.68921
O          1.41345         9.67903        -1.59723
H          0.65356         9.29838        -2.08816
O         -5.39062        -3.14439        -2.40436
H         -4.78120        -2.57843        -2.92618
O         -4.34522         7.85054        -2.11124
O          4.66774        -2.70747         1.96477
H          3.75759        -2.34694         2.10472
O         -8.44425         1.19110        -0.90671
O         -1.27612        -5.23013        -2.57437
H         -2.11256        -4.82705        -2.89319
O         -9.30349        -3.62575        -0.96016
H         -8.64099        -3.95775        -1.60464
O          6.47240         5.29262        -1.76263
H          5.73826         4.86844        -2.25709
O          8.15157        -3.43730         2.31068
H          8.82179        -3.91819         2.83871
H         11.98555        -1.21007         0.79078
H         11.96244         1.25893         0.78423
H         10.71365         3.39106         0.77443
H          9.43036         5.48846         1.00347
H          8.17606         7.58960         1.15114
H          6.90516         9.64872         1.47701
H          4.75423        10.86577         1.46840
H          2.38976        10.97217         0.81787
H         -0.10616        11.00773         0.48781
H         -2.55219        10.97538         0.50845
H         -4.99893        11.08556         0.04958
H         -7.12105         9.86282        -0.15914
H         -8.19533         7.66421         0.28118
H         -9.16569         5.63242         0.92002
H        -10.19448         3.40596         1.91495
H        -11.27171         1.26343         2.53702
H        -11.28555        -1.18755         2.50980
H        -10.38278        -3.33039         1.75792
H         -9.37119        -5.56635         1.10361
H         -8.16340        -7.67229         1.02059
H         -6.98004        -9.82494         0.83920
H         -4.87494       -11.08279         0.49880
H         -2.44799       -11.09092         0.09201
H          0.00975       -11.09626        -0.11931
H          2.49913       -11.08049        -0.13882
H          4.96366       -11.05958        -0.05609
H          7.09286        -9.81586         0.08636
H          8.30882        -7.68931         0.22260
H          9.48535        -5.59229         0.76372
H         10.76491        -3.32888         0.93890
