         224
 CSIRO Nanostructure Databank - Neutral Graphene Oxide Data Set
C        -11.16405         0.62730         0.27380
C         -9.96135         1.42193         0.49315
C         -8.70914         0.64403         0.85644
C         -7.45800         1.40286         0.48202
C         -6.17320         0.64101         0.50806
C         -4.89675         1.37413         0.93058
C         -3.64762         0.68944         0.42416
C         -2.52265         1.39095         0.00802
C         -1.31220         0.61333        -0.48723
C         -0.04984         1.39474        -0.17144
C          1.22876         0.67229         0.03570
C          2.55293         1.39209        -0.17604
C          3.44151         0.46682        -0.99398
C          5.31669         1.60379        -1.03446
C          6.33487         0.81500        -0.48573
C          7.42734         1.49520         0.09345
C          8.62631         0.74595         0.40572
C          9.79887         1.49409         0.81690
C         11.04338         0.75637         0.94803
C         -9.91995         2.78856         0.42072
C         -8.68330         3.55267         0.61066
C         -7.48781         2.86023         0.72461
C         -6.21301         3.55259         0.92143
C         -4.98491         2.81301         0.48022
C         -3.74597         3.56491         0.13202
C         -2.46670         2.82912        -0.00840
C         -1.28532         3.56873        -0.28617
C         -0.04734         2.82547        -0.63393
C          1.25927         3.57272        -0.77122
C          2.51860         2.84585        -0.58789
C          3.76228         3.54514        -1.11077
C          5.11135         2.94984        -0.71800
C          6.16691         3.60202        -0.05142
C          7.33617         2.89472         0.28452
C          8.41243         3.59474         1.07300
C          9.72198         2.85109         1.04998
C         -8.65462         4.99528         0.51276
C         -7.47540         5.72877         0.51558
C         -6.19833         5.05232         0.81544
C         -4.90067         5.72757         0.54061
C         -3.74052         5.03529         0.32348
C         -2.41362         5.69572         0.31697
C         -1.22150         4.97759        -0.19764
C          0.00531         5.71485        -0.39344
C          1.24182         5.06018        -0.67735
C          2.45664         5.79618        -0.80780
C          3.75654         5.06912        -0.95166
C          5.02004         5.77859        -0.51823
C          6.03091         5.04535         0.35243
C          7.36048         5.77642         0.46401
C          8.49267         5.06948         0.74436
C         -7.41766         7.13371         0.18993
C         -6.23963         7.85521         0.21902
C         -4.96174         7.20465         0.61064
C         -3.67470         7.97316         0.48272
C         -2.39128         7.20631         0.38772
C         -1.19923         7.89660        -0.11721
C         -0.00142         7.16081        -0.31069
C          1.22111         7.88925        -0.41817
C          2.44802         7.20007        -0.60912
C          3.69388         7.99901        -0.53380
C          5.00811         7.27226        -0.38844
C          6.16910         7.94198         0.23829
C          7.31495         7.22477         0.50477
C         -6.17984         9.25907        -0.10870
C         -5.00589         9.95751        -0.23214
C         -3.70881         9.34979        -0.06023
C         -2.51901         9.98946        -0.32701
C         -1.24338         9.30512        -0.26957
C         -0.02188        10.00939        -0.33525
C          1.20012         9.32692        -0.29233
C          2.42463        10.04575        -0.05760
C          3.63684         9.39828        -0.05612
C          4.87625        10.04129         0.30714
C          6.05938         9.36545         0.44762
C        -11.18822        -0.72745         0.31759
C         -9.96621        -1.54876         0.66618
C         -8.72762        -0.75566         0.20442
C         -7.43405        -1.52273         0.42017
C         -6.22653        -0.83321         0.62023
C         -4.95316        -1.53690         0.79012
C         -3.62201        -0.76270         0.62515
C         -2.38202        -1.51207         0.31262
C         -1.24249        -0.84009        -0.03119
C          0.05225        -1.52580        -0.07882
C          1.22452        -0.81594        -0.02218
C          2.53563        -1.57643         0.04187
C          3.64320        -0.79995        -0.57353
C          4.97183        -1.44985        -0.46798
C          6.24089        -0.65468        -0.28119
C          7.50510        -1.40410        -0.14145
C          8.68111        -0.64438         0.20695
C          9.90829        -1.36556         0.46391
C         11.09189        -0.59410         0.78586
C         -9.92765        -2.97068         0.15355
C         -8.71793        -3.64789         0.06842
C         -7.48017        -2.92349         0.26470
C         -6.20996        -3.59835        -0.06325
C         -4.95894        -3.01765         0.52380
C         -3.66343        -3.74738         0.43381
C         -2.36802        -2.98287         0.56917
C         -1.10206        -3.73471         0.30076
C          0.10972        -2.99303        -0.08918
C          1.25771        -3.67900        -0.40444
C          2.43458        -2.85728        -0.91174
C          3.79000        -3.61416        -0.93500
C          5.04561        -2.89994        -0.62415
C          6.25282        -3.56829        -0.30349
C          7.47823        -2.79820        -0.06993
C          8.70445        -3.50942         0.23595
C          9.90831        -2.75055         0.44473
C         -8.65185        -5.09155        -0.10893
C         -7.47013        -5.79536        -0.28287
C         -6.21332        -5.03476        -0.49302
C         -4.89629        -5.77169        -0.61495
C         -3.61283        -5.08258        -0.25706
C         -2.36221        -5.87103        -0.10189
C         -1.13945        -5.18138        -0.00627
C          0.07484        -5.87519        -0.20205
C          1.32210        -5.13432        -0.38449
C          2.51732        -5.81053        -0.52867
C          3.79899        -5.11364        -0.80725
C          5.11516        -5.85900        -0.54998
C          6.26145        -4.97177        -0.10419
C          7.45813        -5.64041         0.32733
C          8.68663        -4.89162         0.39007
C         -7.38546        -7.22552        -0.15216
C         -6.19666        -7.94469        -0.24169
C         -4.93138        -7.27546        -0.62534
C         -3.63112        -8.02449        -0.41625
C         -2.38002        -7.26999        -0.20605
C         -1.16826        -7.98994        -0.08427
C          0.04826        -7.28509        -0.21032
C          1.29539        -8.05700        -0.30354
C          2.58507        -7.29035        -0.45967
C          3.80972        -7.88138         0.13202
C          4.94297        -7.12087         0.26743
C          6.09635        -7.61536         1.10471
C          7.40371        -6.97184         0.73914
C         -6.12235        -9.34887         0.04294
C         -4.93220       -10.04253         0.18028
C         -3.65109        -9.42517         0.05287
C         -2.43553       -10.07168         0.31402
C         -1.17816        -9.41829         0.17825
C          0.06243       -10.06394         0.44682
C          1.29408        -9.41530         0.28078
C          2.55639        -9.98207         0.62664
C          3.74670        -9.25612         0.60442
C          5.00944        -9.85978         0.99844
C          6.13093        -9.12093         1.16812
O         -1.54802        -3.42745         1.69147
O         -4.33142         7.83207         1.78041
O          4.62821         7.89215        -1.65928
O          1.99517        -7.98219        -1.60471
O         -6.14191         4.36492         2.12475
O         -4.70715         3.07881        -0.91793
O         -1.38938         0.58250        -1.93556
H         -2.26721         0.24092        -2.20407
O          2.12738        -2.39347        -2.16630
O          5.45643         5.06177         1.69428
H          6.07701         4.54916         2.26677
O          4.38598         0.98901        -1.86954
O          3.61672         3.30309        -2.54644
H          2.79982         3.74926        -2.85684
O          5.82361        -7.15886         2.49476
H          5.09218        -7.71089         2.84544
O         -4.87142         1.40728         2.37230
H         -4.65799         0.49439         2.68648
O          4.80502         5.47270        -1.91359
O         -6.78520         1.06464        -0.78199
O         -8.63261         0.53679         2.29449
H         -9.37921        -0.03824         2.59376
O          0.45981         1.22917         1.18303
O         -2.11124         6.40445         1.57690
O         -4.16551        -1.15899         1.95575
O         -9.97203        -1.70039         2.12741
H         -9.23245        -2.29838         2.36918
O         -8.88577        -0.59599        -1.21936
H         -8.10998        -0.07849        -1.54377
O          3.85431        -4.48402        -2.13031
O          5.42226        -1.01144         0.93015
O          7.92951         3.56474         2.48344
H          8.67419         3.85267         3.05377
O          0.46189         3.04846        -1.97541
O          5.57657        -6.34891        -1.85193
H          5.20120        -5.72869        -2.52471
O          2.82019        -1.99808         1.37453
H          3.67920        -1.60338         1.65137
O         -6.24189        -3.95708        -1.48833
O          3.21164         1.42127         1.14229
H          2.50440         1.59418         1.80523
O         -4.23837        -7.86675        -1.75801
O         -4.46709        -3.80704         1.65975
O         -4.06855        -5.14948        -1.64455
H         12.04126        -1.13259         0.92442
H         11.95406         1.31428         1.21220
H         10.62936         3.39543         1.35861
H          9.44253         5.60063         0.92013
H          8.21384         7.75771         0.85323
H          6.95604         9.90869         0.78147
H          4.84313        11.11863         0.52890
H          2.36594        11.11497         0.19578
H         -0.03017        11.10903        -0.33281
H         -2.52490        11.04482        -0.63915
H         -5.03988        11.01769        -0.52433
H         -7.13131         9.77760        -0.30131
H         -8.35331         7.64398        -0.08756
H         -9.60415         5.51804         0.31957
H        -10.84158         3.35090         0.20183
H        -12.09144         1.17263         0.03555
H        -12.13415        -1.25918         0.13149
H        -10.87331        -3.52198         0.03435
H         -9.59253        -5.65567        -0.01123
H         -8.30849        -7.76965         0.10228
H         -7.06772        -9.88437         0.21739
H         -4.97069       -11.11006         0.44444
H         -2.45055       -11.12910         0.62090
H          0.04969       -11.10390         0.80852
H          2.58227       -11.02327         0.98444
H          5.03781       -10.95086         1.14188
H          7.07248        -9.60554         1.46793
H          8.33409        -7.48318         1.03214
H          9.61276        -5.42038         0.66115
H         10.83908        -3.29667         0.66164
