         430
 CSIRO Nanostructure Databank - Neutral Graphene Oxide Data Set
C         28.05514        27.55075         1.09018
C         28.06987        28.95795         1.10889
C         26.84679        29.71148         1.28312
C         28.13158        31.84675         1.44560
C         26.84768        31.05965         1.37063
C         28.02961        33.25980         0.89906
C         26.84160        33.98890         0.98328
C         27.90940        35.94024        -0.00345
C         26.77663        35.30915         0.53141
C         27.84024        37.32486        -0.62511
C         26.59017        38.10173        -0.34498
C         27.81940        40.21235        -0.13855
C         26.61047        39.46054        -0.19210
C         27.74705        41.71658        -0.16596
C         26.77684        42.29242         0.84313
C         27.96191        44.43940         0.90056
C         26.87522        43.57288         1.27791
C         28.03097        45.77011         1.25709
C         30.45284        27.48296         0.60957
C         29.21782        26.82949         0.86565
C         30.48708        28.90605         0.59625
C         29.29511        29.65524         0.88536
C         30.49834        31.77811         0.56321
C         29.31258        31.07453         0.89730
C         30.45002        33.18680         0.41832
C         29.19984        33.90594         0.41877
C         30.33798        35.94404        -0.65735
C         29.13452        35.25390        -0.03710
C         30.32733        37.44419        -0.42110
C         29.09856        38.11502        -0.34617
C         30.30351        40.25390        -0.13255
C         29.06748        39.53364        -0.20580
C         30.28793        41.69681        -0.02397
C         29.08879        42.39257        -0.02710
C         30.37293        44.54788         0.26893
C         29.04989        43.89321        -0.00455
C         30.35626        45.96675         0.49309
C         29.17180        46.55830         0.94044
C         32.87817        24.63015         0.31209
C         31.70569        25.32793         0.46621
C         32.87682        27.44360         0.06925
C         31.67447        26.74840         0.38708
C         32.85800        28.85756        -0.06664
C         31.69880        29.58785         0.26311
C         32.90788        31.70477        -0.01190
C         31.71444        31.03747         0.26791
C         32.97160        33.17084         0.06096
C         31.68503        33.94133         0.23389
C         32.82477        36.01485        -0.42840
C         31.65451        35.33239        -0.24945
C         32.80780        37.46412        -0.83652
C         31.53929        38.15821        -0.41000
C         32.78805        40.27796        -0.08066
C         31.53902        39.56566        -0.23399
C         32.75959        41.66817         0.14727
C         31.55159        42.39318         0.10929
C         32.82836        44.54495         0.27156
C         31.56278        43.83133         0.23570
C         32.82385        45.98084         0.22013
C         31.60348        46.70026         0.33932
C         32.83338        48.79097         0.12032
C         31.63800        48.10891         0.29380
C         35.40968        23.13746         0.24436
C         35.35867        24.58817         0.06917
C         34.11702        25.30116         0.09134
C         35.35306        27.40363        -0.28607
C         34.11883        26.71594        -0.06594
C         35.36453        28.82920        -0.51245
C         34.04003        29.54553        -0.71011
C         35.29977        31.70054        -0.57014
C         34.10860        31.01663        -0.38038
C         35.36896        33.13685        -0.60313
C         34.05289        33.84736        -0.74718
C         35.27962        36.01867        -0.61397
C         34.10487        35.32778        -0.49018
C         35.28729        37.46147        -0.42331
C         34.07047        38.17817        -0.40943
C         35.27912        40.22464         0.19663
C         34.04218        39.55287        -0.09222
C         35.29037        41.65232         0.36101
C         33.99988        42.37344         0.63639
C         35.28035        44.53518         0.21343
C         34.03400        43.84336         0.29918
C         35.29463        45.95618         0.08581
C         34.06102        46.68178         0.10451
C         35.32160        48.80059        -0.15386
C         34.06479        48.10483         0.02363
C         35.35695        50.20767        -0.34841
C         37.79246        23.10917        -0.44952
C         36.53129        22.42501         0.02462
C         37.83788        24.52349         0.13313
C         36.55872        25.28690        -0.09281
C         37.83671        27.38173        -0.55361
C         36.58317        26.69508        -0.29134
C         37.83265        28.81725        -0.81390
C         36.54187        29.49979        -0.75289
C         37.80935        31.62625        -0.76868
C         36.47563        30.95893        -1.15412
C         37.81263        33.13377        -0.80041
C         36.56179        33.82880        -0.74162
C         37.77960        36.00728        -0.38180
C         36.56974        35.32460        -0.99094
C         37.75626        37.33531        -0.07807
C         36.51852        38.11742        -0.14714
C         37.74844        40.15621         0.57840
C         36.49500        39.48567         0.18939
C         37.74957        41.67465         0.60025
C         36.48023        42.37869         0.37747
C         37.75582        44.50505         0.20326
C         36.50896        43.81209         0.26724
C         37.76290        45.92555         0.05744
C         36.53816        46.64954        -0.00050
C         37.78946        48.77642        -0.29687
C         36.54382        48.08042        -0.14485
C         37.78708        50.18313        -0.55120
C         36.54384        50.87067        -0.56093
C         40.31599        20.27892         0.13455
C         39.12469        20.95910        -0.05080
C         40.28767        23.10352        -0.08910
C         39.08799        22.36833        -0.13960
C         40.26026        24.54973        -0.25430
C         39.07733        25.25895        -0.29994
C         40.29018        27.32976        -0.96405
C         39.04829        26.67120        -0.57943
C         40.26967        28.74476        -1.51305
C         39.00218        29.49173        -1.14492
C         40.28549        31.73067        -1.30327
C         38.96658        30.96597        -1.52327
C         40.27362        33.12286        -0.79798
C         39.02274        33.79817        -0.62599
C         40.28551        35.93081        -0.14351
C         38.98949        35.17337         0.00130
C         40.28372        37.30669         0.07338
C         39.00058        37.97097         0.51935
C         40.22559        40.18320         0.36131
C         39.03162        39.46943         0.38052
C         40.22841        41.64256         0.37579
C         39.02329        42.37387         0.39211
C         40.24300        44.50397         0.27424
C         39.00279        43.78811         0.25942
C         40.21880        45.93493         0.18705
C         39.01686        46.63220         0.02409
C         40.25000        48.76443        -0.36763
C         39.02227        48.06814        -0.19064
C         40.24557        50.15167        -0.73184
C         39.02199        50.86888        -0.81348
C         40.23509        52.88601        -1.46834
C         39.05493        52.25234        -1.17572
C         42.78746        20.30962         0.33811
C         41.54435        20.98518         0.18362
C         42.78318        23.09093         0.02419
C         41.53693        22.40626         0.04765
C         42.79560        24.56067        -0.15355
C         41.52097        25.30805        -0.30927
C         42.74468        27.34822        -1.39735
C         41.48606        26.66899        -0.88494
C         42.76027        28.81640        -1.01732
C         41.55916        29.48376        -1.14047
C         42.79483        31.65662        -0.72481
C         41.57949        30.95234        -1.15900
C         42.76074        33.06532        -0.62103
C         41.49982        33.79115        -0.60292
C         42.71537        35.95342        -0.36156
C         41.50301        35.22230        -0.35839
C         42.73139        37.35177        -0.14063
C         41.50020        38.05387         0.06601
C         42.71148        40.20067         0.29717
C         41.48524        39.47500         0.25017
C         42.71060        41.62632         0.39428
C         41.46839        42.36081         0.37863
C         42.73476        44.52806         0.69670
C         41.46016        43.77592         0.39096
C         42.73201        45.94184         0.18244
C         41.47788        46.72143         0.44507
C         42.71086        48.73191        -0.46566
C         41.49859        48.08906        -0.19733
C         42.71800        50.10772        -0.92136
C         41.48141        50.81412        -1.00963
C         42.69625        52.81308        -1.73980
C         41.47796        52.18431        -1.40348
C         43.97787        21.00371         0.35520
C         45.25981        23.18678         0.23245
C         44.00233        22.41799         0.19656
C         45.28071        24.51902        -0.15281
C         44.06133        25.16678        -0.64468
C         45.28407        27.38041        -0.92591
C         44.05202        26.60791        -1.11553
C         45.25861        28.76983        -0.77849
C         44.01236        29.50491        -0.80936
C         45.25679        31.64956        -0.54529
C         44.02207        30.92961        -0.66330
C         45.23555        33.08483        -0.52310
C         43.99911        33.77054        -0.55217
C         45.28997        35.99918        -0.50298
C         43.97177        35.23711        -0.65513
C         45.22969        37.40520        -0.08191
C         43.98195        38.07285        -0.01460
C         45.18363        40.17373         0.41309
C         43.95033        39.47499         0.24090
C         45.15854        41.60060         0.42293
C         43.95845        42.33493         0.37996
C         45.17828        44.49062         0.14282
C         43.99226        43.77568         0.34756
C         45.22931        45.91391         0.10545
C         43.99540        46.71728         0.41905
C         45.17430        48.68848        -0.54798
C         43.98118        48.06880        -0.25367
C         45.23225        50.01416        -1.27100
C         43.92173        50.76620        -1.25278
C         43.88933        52.10553        -1.68088
C         47.71770        23.19669         0.35591
C         46.50960        22.55046         0.55141
C         47.78995        24.55100        -0.04834
C         46.51681        25.36677         0.02041
C         47.79776        27.38444        -0.59195
C         46.57162        26.57671        -0.93047
C         47.75294        28.79781        -0.53377
C         46.50359        29.49970        -0.59512
C         47.73841        31.61955        -0.39630
C         46.49445        30.91568        -0.49692
C         47.73789        33.07567        -0.52261
C         46.47937        33.83339        -0.44281
C         47.74180        35.94006         0.03651
C         46.52243        35.21855        -0.29626
C         47.70138        37.35077         0.27561
C         46.44849        38.07550         0.23336
C         47.64845        40.14121         1.02467
C         46.41496        39.46603         0.47449
C         47.66655        41.65496         0.80487
C         46.44079        42.29241         0.24191
C         47.72821        44.51243         0.12084
C         46.45676        43.76734        -0.02028
C         47.70738        45.92156        -0.00647
C         46.44511        46.60481        -0.07344
C         47.64388        48.75259        -0.30866
C         46.43904        48.02469        -0.29477
C         47.55794        50.20365        -0.41160
C         46.41791        50.82030        -0.78718
C         50.25824        24.55858        -0.32034
C         49.00356        25.22917        -0.30381
C         50.24054        27.38491        -0.34555
C         48.99961        26.67471        -0.43296
C         50.21130        28.80641        -0.26560
C         48.98152        29.51299        -0.33603
C         50.19244        31.64844         0.07580
C         48.96712        30.94195        -0.26919
C         50.19436        33.03443         0.27909
C         49.05791        33.82510        -0.17275
C         50.18332        35.92007         0.52385
C         48.96296        35.24706         0.17497
C         50.17138        37.36024         0.56218
C         48.93817        38.06258         0.49037
C         50.17326        40.20122         0.60052
C         48.94786        39.47846         0.63184
C         50.20677        41.65174         0.57871
C         48.94879        42.40023         0.64840
C         50.17360        44.53274         0.24967
C         48.94068        43.82693         0.25705
C         50.17371        45.95721         0.09321
C         48.93038        46.65356        -0.02319
C         50.14702        48.76435        -0.16802
C         48.90493        48.07839        -0.15332
C         51.44637        25.25686        -0.37401
C         52.72101        27.41249        -0.31090
C         51.47591        26.67685        -0.34244
C         52.69592        28.81052        -0.10231
C         51.43816        29.51901        -0.03671
C         52.65004        31.56695         0.64205
C         51.39910        30.88826         0.24548
C         52.62820        33.01827         1.02093
C         51.27175        33.73758         1.08420
C         52.58587        35.93001         1.26897
C         51.36304        35.20855         0.76196
C         52.63641        37.37459         0.83260
C         51.40797        38.07584         0.65449
C         52.68665        40.20556         0.25989
C         51.39694        39.49040         0.55262
C         52.66424        41.68480         0.53089
C         51.40403        42.37802         0.47754
C         52.63180        44.53373         0.36843
C         51.39948        43.81905         0.40059
C         52.65308        45.95528         0.19373
C         51.40373        46.67671         0.07699
C         51.34907        48.08852        -0.05714
C         55.16099        27.46231        -0.45940
C         53.97990        26.76011        -0.48565
C         55.16562        28.86595        -0.21869
C         53.92747        29.54131        -0.02612
C         55.13166        31.65336         0.36257
C         53.93016        30.93102         0.27470
C         55.10958        33.09375         0.62769
C         53.88986        33.78853         0.86216
C         55.09605        35.91242         0.98080
C         53.88012        35.19059         0.98720
C         55.09501        37.36606         1.10827
C         53.87458        38.07861         0.89533
C         55.09887        40.20271         1.01509
C         53.91087        39.50225         0.78227
C         55.12634        41.71484         1.09189
C         53.84434        42.38368         0.65023
C         55.09636        44.48827         0.34173
C         53.85912        43.81669         0.50202
C         55.09846        45.88581         0.15831
C         53.90899        46.60283         0.11686
C         56.37292        29.60762        -0.13907
C         56.35495        30.95816         0.13483
C         56.30693        33.84064         0.59768
C         56.30450        35.21125         0.78736
C         56.27177        38.09338         1.35333
C         56.26335        39.48499         1.35700
C         56.33468        42.37669         0.47148
C         56.32000        43.70514         0.23136
O         32.66970        33.75295         1.34756
O         46.55745        42.79925        -1.13973
O         48.20587        42.31629         1.99345
O         44.68354        35.76528        -1.82481
O         44.14454        25.47417        -2.09862
O         42.25730        25.29025         1.01133
O         37.69550        40.88923         1.85533
O         41.14172        31.53651        -2.46787
O         48.65002        33.55506        -1.55717
O         52.69508        31.99961         2.08213
O         55.22557        42.00249         2.53250
H         55.23380        42.97810         2.63516
O         52.43686        35.96793         2.74033
H         51.87288        35.19188         2.98958
O         45.49670        49.71502        -2.68618
H         46.32739        49.19445        -2.72099
O         46.78018        26.08930        -2.28269
H         45.92829        25.68200        -2.57555
O         37.95677        24.35208         1.57905
H         38.06693        25.23867         1.98159
O         44.09869        46.99630         1.88815
H         44.00862        46.10893         2.32179
O         38.73464        31.01330        -2.95297
H         39.44737        30.45890        -3.35996
O         33.65686        33.68077        -2.14302
H         34.41048        33.96643        -2.70345
O         36.18590        31.00120        -2.58070
H         37.03706        30.85386        -3.07112
O         42.75870        44.63575         2.18940
H         42.01578        45.25590         2.41473
O         37.72069        23.23188        -1.89576
H         37.63575        22.33271        -2.27472
O         38.89500        37.69927         1.97390
H         39.45801        38.35140         2.44406
O         47.55365        39.91945         2.46856
H         47.99616        40.69547         2.89206
O         46.42738        25.90528         1.38162
H         46.41933        25.14581         2.00179
O         33.78778        29.49070        -2.15617
H         34.51763        30.00867        -2.58284
O         36.69610        35.46535        -2.44787
H         36.60929        36.41858        -2.66225
O         28.40682        32.01686         2.88853
H         28.53909        31.12133         3.26635
O         50.83497        33.68211         2.49365
H         51.22864        32.84840         2.85541
O         40.24415        28.67619        -2.97751
H         41.09883        28.24655        -3.24827
O         42.62834        27.37735        -2.86234
H         42.97205        26.51231        -3.18900
O         38.04987        31.28696         0.63182
H         37.62264        31.96593         1.19592
O         41.43038        46.99229         1.91677
H         42.31191        47.39737         2.13472
O         38.82060        34.91152         1.43913
H         38.82313        35.79398         1.89036
O         32.77788        37.48301        -2.30626
H         32.02235        36.90395        -2.57065
O         30.26406        35.76485        -2.11254
H         29.37591        36.11846        -2.38472
O         28.67633        44.32501        -1.36631
H         27.88592        43.78021        -1.61374
O         27.83513        37.06782        -2.09693
H         27.71688        37.93642        -2.53792
O         52.81489        40.12848        -1.22121
H         52.76792        39.17984        -1.46823
O         33.86774        42.32586         2.11363
H         34.73546        42.58292         2.49366
O         27.19549        42.07517        -1.50466
H         27.72891        41.59206        -2.17178
H         27.10598        27.02154         1.25788
H         25.89853        29.15370         1.31876
H         25.89487        31.58701         1.51916
H         25.93469        33.53387         1.40345
H         25.82008        35.84497         0.59306
H         25.62295        37.58719        -0.43120
H         25.65558        40.00098        -0.11061
H         25.94781        41.65951         1.19195
H         26.11739        43.97315         1.97044
H         27.20460        46.23137         1.81911
H         29.16251        25.73315         0.86925
H         29.14935        47.62964         1.18410
H         32.85196        23.53564         0.38853
H         30.78337        24.76710         0.66617
H         32.80511        49.88744         0.07320
H         30.70390        48.68210         0.37164
H         34.49576        22.60588         0.54409
H         34.42383        50.78564        -0.35870
H         36.50104        21.32997         0.12420
H         36.51516        51.95476        -0.73033
H         40.31918        19.18340         0.22654
H         38.19189        20.38136        -0.11495
H         40.23683        53.94540        -1.76321
H         38.11929        52.82296        -1.24246
H         42.78735        19.21522         0.44557
H         42.69066        53.86272        -2.06704
H         44.91700        20.44811         0.47848
H         44.82132        52.60293        -1.98320
H         48.64454        22.62039         0.49109
H         46.51948        21.49804         0.86314
H         48.43666        50.80782        -0.14334
H         46.38627        51.91812        -0.84389
H         50.28850        23.46090        -0.28797
H         50.16717        49.85740        -0.27473
H         52.38671        24.68976        -0.38808
H         52.27930        48.67252        -0.07211
H         56.11800        26.94281        -0.61190
H         54.01186        25.67789        -0.66877
H         56.05654        46.41142         0.03594
H         53.95764        47.69150        -0.02019
H         57.33087        29.08897        -0.28851
H         57.31280        31.49033         0.19669
H         57.26862        33.34212         0.42342
H         57.25895        35.75356         0.75835
H         57.20998        37.56762         1.57692
H         57.18399        40.03037         1.60660
H         57.26412        41.80115         0.34918
H         57.22785        44.22024        -0.11833
