         278
 CSIRO Nanostructure Databank - Neutral Graphene Oxide Data Set
C        -11.04174         0.97333        -0.08134
C        -10.20212         1.84447        -0.99254
C         -8.95828         1.10865        -1.39079
C         -7.71117         1.12595        -0.85096
C         -6.53676         0.54374        -1.59555
C         -5.26696         1.37180        -1.55678
C         -3.92538         0.69588        -1.79438
C         -2.65894         1.41417        -1.34362
C         -1.33919         0.74480        -1.57443
C         -0.07087         1.30291        -0.93841
C          1.27009         0.76442        -1.34824
C          2.55206         1.32010        -0.74970
C          3.86449         0.74563        -1.18029
C          5.06897         0.98587        -0.26453
C          6.37708         0.67426        -0.98836
C          7.67303         1.26978        -0.51341
C          8.87094         0.40504        -0.41512
C         10.05785         0.86272         0.41678
C         11.32682         0.42283        -0.28435
C         -9.87963         3.23029        -0.44709
C         -8.84494         3.97856        -0.88852
C         -7.78561         3.49238        -1.85933
C         -6.31996         3.75024        -1.38373
C         -5.28247         2.73700        -0.87301
C         -4.03332         3.23433        -0.16735
C         -2.79580         2.29187        -0.10479
C         -1.48917         2.98655         0.40877
C         -0.17257         2.23949         0.24473
C          1.10860         2.80502         0.81341
C          2.50358         2.14972         0.53467
C          3.73152         3.05572         0.62970
C          5.04808         2.35515         0.43027
C          6.32584         3.10259         0.66082
C          7.65002         2.58450         0.17583
C          8.88634         3.06039         0.86022
C         10.01174         2.31591         0.83742
C         -8.74203         5.45289        -0.50942
C         -7.38033         6.06021        -0.79899
C         -6.18520         5.16676        -0.93946
C         -4.98129         5.64866        -0.18660
C         -3.86746         4.71499         0.14718
C         -2.49396         5.31292         0.33023
C         -1.42309         4.41624         0.89340
C         -0.16762         5.05856         1.56536
C          1.11295         4.16795         1.48749
C          2.42722         4.85250         1.74394
C          3.70911         4.27073         1.24040
C          4.98038         4.92628         1.69738
C          6.26733         4.61838         0.91208
C          7.52901         5.09724         1.63667
C          8.89207         4.52026         1.27165
C         -7.19350         7.40077        -0.75688
C         -5.83643         7.99306        -0.83345
C         -4.69259         7.08636        -0.47822
C         -3.52063         7.73173         0.22479
C         -2.32338         6.79784         0.35802
C         -1.16246         7.41282         1.12835
C          0.07483         6.53049         1.20838
C          1.26079         7.12518         1.52752
C          2.40503         6.33163         2.05604
C          3.67049         7.01271         2.48320
C          4.95233         6.21557         2.44804
C          6.24395         7.00923         2.67830
C          7.48453         6.19299         2.41245
C         -5.59878         9.45051        -0.64651
C         -4.35884         9.95149        -0.49594
C         -3.13332         9.05163        -0.49876
C         -1.89316         9.63394         0.12133
C         -0.90263         8.83983         0.66741
C          0.36657         9.38493         0.94760
C          1.43760         8.58291         1.42499
C          2.63057         9.19838         1.74580
C          3.81703         8.53745         2.38195
C          5.09094         8.94716         1.67464
C          6.22363         8.25471         1.82128
C        -10.89249        -0.35513         0.12794
C         -9.82891        -1.26629        -0.31660
C         -9.01622        -1.06715        -1.39184
C         -7.76845        -1.85138        -1.70216
C         -6.49806        -0.94839        -1.93914
C         -5.13882        -1.62793        -1.98797
C         -3.87044        -0.79328        -2.04888
C         -2.54708        -1.51710        -1.96304
C         -1.28471        -0.63615        -2.24411
C          0.03425        -1.38747        -1.95283
C          1.33362        -0.57012        -2.14332
C          2.58187        -1.36415        -1.77531
C          3.85766        -0.59372        -1.90634
C          5.13656        -1.35485        -2.01013
C          6.42711        -0.63957        -1.69060
C          7.63675        -1.47862        -1.42378
C          8.90195        -0.82986        -0.97518
C         10.15365        -1.69101        -0.82761
C         11.36438        -0.77419        -0.88800
C         -9.65979        -2.50167         0.56649
C         -8.66372        -3.53834        -0.01314
C         -7.42049        -2.79954        -0.54834
C         -6.28412        -3.72404        -0.96273
C         -5.03381        -3.08953        -1.55161
C         -3.74011        -3.66854        -1.07959
C         -2.48299        -2.89239        -1.35499
C         -1.21871        -3.15090        -0.50878
C          0.05523        -2.70189        -1.23078
C          1.38032        -3.26266        -0.80315
C          2.60390        -2.67713        -1.43133
C          3.92560        -3.41152        -1.17655
C          5.08077        -2.86490        -2.01046
C          6.34172        -3.66450        -2.10752
C          7.60845        -2.94136        -1.70807
C          8.90522        -3.66779        -1.67470
C         10.15234        -2.83007        -1.86587
C         -8.23969        -4.52460         1.06533
C         -7.09608        -5.22924         0.95157
C         -6.19089        -5.00877        -0.21325
C         -4.87585        -5.73025        -0.18266
C         -3.66830        -4.92588        -0.53139
C         -2.40322        -5.40562         0.11698
C         -1.16868        -4.55824         0.11370
C          0.18284        -5.18619         0.53555
C          1.43366        -4.59764        -0.14095
C          2.54492        -5.52026        -0.61021
C          3.77581        -4.93530        -1.25947
C          5.02909        -5.80661        -1.37697
C          6.38293        -5.19389        -1.87093
C          7.60480        -5.66198        -1.07134
C          8.87248        -4.96085        -1.27896
C         -6.54321        -6.18095         1.98173
C         -6.08832        -7.51392         1.31566
C         -4.78815        -6.72619         0.96795
C         -3.51590        -7.52864         0.94980
C         -2.27248        -6.91433         0.30620
C         -0.99289        -7.35946         0.98361
C          0.18371        -6.69822         0.63256
C          1.44951        -7.31328         0.85299
C          2.48638        -6.99574        -0.19322
C          3.83114        -7.67741         0.04291
C          5.05711        -7.13924        -0.67141
C          6.41304        -7.82026        -0.37683
C          7.57876        -6.85259        -0.42009
C         -5.82724        -8.54120         2.39470
C         -4.61504        -9.03570         2.68937
C         -3.42094        -8.70971         1.86966
C         -2.08972        -9.19244         2.23410
C         -0.92581        -8.57277         1.75259
C          0.36317        -9.03422         2.17384
C          1.52750        -8.46112         1.67890
C          2.87690        -8.94691         2.16137
C          4.00305        -8.62131         1.19552
C          5.38440        -8.87905         1.67592
C          6.45829        -8.53569         0.95613
O          6.15031         5.26155        -0.31564
O          4.77155        -7.04231        -2.09546
O          0.31295         1.78681         1.52832
O         -3.74405        -8.85792         0.39922
O          4.35897        -3.11320         0.17731
H          3.55817        -3.07008         0.75438
O         -2.06959        -4.59946         1.28442
O         -5.09065        -5.86494         2.16578
O         -8.05353         3.21449        -3.00667
O          2.67921        -5.37958        -2.07012
O         -1.98177         6.04803        -0.83765
O         -5.89275        -6.10710        -1.15056
O          1.77463         4.05054         2.78507
O         -1.84952         1.83279        -2.44117
O          9.99760         0.10519         1.68268
H          9.13653         0.30338         2.10874
O         -2.42483        -2.70775        -2.80348
O         -4.80606         5.19310         1.17767
O         -1.84324         3.35111         1.78784
O          1.74447        -3.36750         0.63348
O         -6.90086        -1.96296         0.52072
H         -6.84028        -2.50231         1.33911
O          7.87130         2.54420        -1.25967
O          0.67193         1.87746        -2.07132
O          1.90620        -7.73789        -1.36686
H         -1.34728         6.73028         3.00705
O          3.34793         1.92882        -1.82051
O         -4.01710         8.06076         1.53687
H         -3.25781         8.06908         2.17417
O         -8.05667        -2.60688        -2.88394
H         -7.25799        -2.55921        -3.47110
O          5.77942         2.29387         1.72700
O        -10.97989         2.08065        -2.19497
H        -10.35153         2.29642        -2.91808
O          7.30761        -2.43999        -0.33161
O         10.14736        -2.34207         0.45920
H         10.13366        -1.62678         1.14521
O         -5.92962        -3.91060        -2.35240
O          2.68852         6.62145         3.47963
O          4.50764        -0.74330        -3.18822
O          5.00709         4.94595         3.16466
O         -9.19936         0.02466        -2.27258
O          0.32427        -4.87705         1.95056
H          0.57930        -3.92857         2.02334
O         -5.15373         2.67717         0.57189
O         -3.84844         0.16943        -3.13494
O          5.00364        -0.02891         0.76556
H          4.31253         0.24826         1.41641
O          3.73145        -9.12966        -0.14877
O          6.76829        -5.81778        -3.05602
O          0.04329        -2.65620        -2.67889
O         -5.91011        -1.34338        -3.19639
O         -6.12684         1.37141        -2.72092
O         -5.78848         4.75551        -2.29493
O         -6.89726        -8.06925         0.31275
H         -6.81448        -7.52314        -0.50620
O         -9.30447        -4.26195        -1.07675
H         -9.03125        -3.87136        -1.94468
O        -10.91459        -3.15135         0.75085
H        -11.03907        -3.73908        -0.02875
O         -1.32984        -2.21724         0.60101
H         -1.78213        -2.69512         1.33738
O          6.46579         0.60038        -2.44027
O          9.84172         4.75622         2.30906
H          9.55195         4.27745         3.11202
O          5.53947        -3.38433        -3.28514
O         -2.18320        -7.44419        -1.04520
H         -2.60274        -8.33875        -1.02487
O         -4.94671         7.40707        -1.86745
O          0.67987        -7.05691        -1.70675
H          0.10707        -7.79108        -2.04013
O          2.86710       -10.35775         2.38889
H          2.94844       -10.79734         1.51603
O         10.14508        -2.23789        -3.16525
H         10.07071        -2.94469        -3.83841
O         -0.52665         5.13687         2.96688
H         -0.70666         4.22057         3.27795
O         -7.43416         1.80954         0.31648
H         -8.27300         2.09423         0.73437
O          6.65018        -8.79469        -1.41374
H          6.32580        -8.38701        -2.25104
O         -2.72559         8.79855        -1.86051
H         -3.46688         8.31991        -2.31015
O         -1.60206         7.55767         2.51911
O          6.23873         7.41438         4.06371
H          6.06199         6.61173         4.59862
O          2.70028         1.19873         1.61874
H          2.56029         1.67979         2.46499
O         -9.05084         5.63776         0.87881
H         -8.28170         5.35554         1.41535
O         -1.28212        -0.39996        -3.65268
H         -1.29848        -1.27593        -4.09721
O          1.47273        -0.24750        -3.52447
H          0.85130         0.48629        -3.73346
O          3.85259         9.06266         3.73456
H          3.26847         8.48698         4.27727
O         -3.07619         1.29271         0.89881
H         -3.16652         1.75777         1.76103
H         12.27834        -1.12471        -1.39093
H         12.20087         1.09141        -0.28109
H         10.93160         2.73670         1.27483
H          9.24757         5.09935         0.37441
H          8.41933         6.57090         2.85810
H          7.14879         8.57726         1.32217
H          5.06604         9.86361         1.06603
H          2.68400        10.29503         1.65702
H          0.55094        10.45186         0.75086
H         -1.65485        10.68818        -0.09684
H         -4.21513        11.03809        -0.39489
H         -6.47386        10.11820        -0.65080
H         -8.04796         8.07443        -0.59119
H         -9.52410         6.01195        -1.08678
H        -10.61911         3.70590         0.21974
H        -11.89675         1.47388         0.40110
H        -11.61568        -0.83516         0.80812
H         -9.29722        -2.17382         1.58055
H         -8.89469        -4.66336         1.93985
H         -7.10338        -6.19032         2.94292
H         -6.70270        -8.86393         2.97914
H         -4.49062        -9.75931         3.50895
H         -2.00342       -10.03120         2.94070
H          0.43275        -9.90033         2.84723
H          3.08354        -8.45558         3.15197
H          5.49617        -9.40433         2.63611
H          7.46110        -8.79114         1.33201
H          8.51143        -7.20486         0.05121
H          9.80405        -5.52264        -1.10712
H         11.06796        -3.47226        -1.73195
