         640
 CSIRO Nanostructure Databank - Neutral Graphene Oxide Data Set
C         23.52728        27.56109         1.97492
C         23.42740        28.93868         1.87782
C         23.19940        31.88346         1.49849
C         23.15948        33.11982         0.94274
C         23.06396        35.99514         0.16302
C         23.03903        37.34177        -0.12669
C         22.98938        40.26962        -0.53134
C         22.95232        41.63126        -0.81654
C         22.90519        44.52498        -1.50216
C         22.90097        45.90208        -1.68143
C         26.11392        24.98554         2.82674
C         24.90511        25.53429         2.43852
C         25.94146        27.74702         2.31408
C         24.77621        26.93664         2.22848
C         25.81966        29.15752         2.16967
C         24.57065        29.76899         1.97759
C         25.68404        32.00995         1.53819
C         24.46017        31.29682         2.07183
C         25.60971        33.30022         1.00425
C         24.34190        33.92807         0.75955
C         25.50617        36.05519         0.23694
C         24.29226        35.30246         0.37336
C         25.46219        37.45224        -0.02213
C         24.23411        38.11494        -0.19329
C         25.41749        40.27343        -0.65982
C         24.20248        39.55793        -0.44929
C         25.37904        41.66755        -0.97623
C         24.13341        42.36593        -1.05098
C         25.34814        44.46722        -1.51204
C         24.12496        43.78419        -1.36845
C         25.38551        45.89068        -2.00955
C         24.09800        46.63792        -1.79921
C         25.32682        48.74440        -1.80429
C         24.12842        48.04788        -1.85549
C         28.55080        23.70542         3.57167
C         28.50372        25.21113         3.69116
C         27.27704        25.77795         2.99061
C         28.40668        27.91401         2.52210
C         27.20748        27.14817         2.65548
C         28.34901        29.25297         2.11063
C         27.05854        29.95774         2.22862
C         28.20609        32.01849         1.24117
C         26.99574        31.42459         1.82932
C         28.08583        33.33213         0.71231
C         26.82804        34.02106         0.69358
C         27.98803        36.08882        -0.01069
C         26.77362        35.37969         0.32841
C         27.97560        37.47205        -0.23705
C         26.73548        38.25604         0.10165
C         27.86994        40.26262        -0.89033
C         26.68462        39.60874        -0.56008
C         27.84791        41.67412        -1.18737
C         26.60334        42.37332        -1.17178
C         27.81878        44.50116        -1.41527
C         26.58643        43.78066        -1.38521
C         27.81435        45.94400        -1.35740
C         26.60857        46.66016        -1.57346
C         27.76574        48.79755        -1.20268
C         26.57256        48.07438        -1.57336
C         27.87861        50.21938        -1.17092
C         30.67493        23.65154         2.32343
C         29.51775        23.01733         2.93611
C         30.78016        25.06321         2.36525
C         29.90591        25.86341         3.32579
C         30.85941        27.94270         2.10586
C         29.74538        27.40453         2.98336
C         30.76909        29.22276         1.62725
C         29.52002        29.96073         1.71381
C         30.58053        31.86462         0.53820
C         29.43394        31.29692         1.22588
C         30.40363        33.16149        -0.13245
C         29.22474        33.98083         0.15898
C         30.41538        36.04071        -0.54456
C         29.20527        35.34506        -0.16988
C         30.39945        37.45357        -0.71055
C         29.16924        38.16590        -0.58950
C         30.34544        40.22534        -1.21730
C         29.14673        39.56244        -0.87807
C         30.30719        41.63295        -1.73404
C         29.04796        42.38132        -1.39581
C         30.29577        44.52812        -1.42787
C         29.04664        43.79770        -1.41914
C         30.28153        45.92701        -1.12572
C         29.01377        46.62502        -1.01706
C         29.91291        48.76169        -0.10829
C         28.90094        48.04460        -0.78719
C         30.12946        50.14341        -0.20508
C         29.04075        50.86707        -0.77539
C         32.85295        20.67543         1.55327
C         31.72863        21.41935         1.81618
C         32.98951        23.48112         1.49181
C         31.76487        22.85004         1.85369
C         33.05003        24.90374         1.46667
C         31.95717        25.68437         1.88641
C         33.14780        27.74251         1.06770
C         32.16528        27.17915         2.08397
C         33.08352        29.05040         0.65381
C         32.03825        29.95898         1.24992
C         32.95168        31.84136        -0.15563
C         31.79902        31.21386         0.44935
C         32.93471        33.20549        -0.48108
C         31.65613        33.89364        -0.60551
C         32.85395        36.04084        -0.92593
C         31.63768        35.35268        -0.67446
C         32.83205        37.43430        -1.11799
C         31.61320        38.14395        -1.01208
C         32.83627        40.28659        -1.39127
C         31.58770        39.55933        -1.23575
C         32.81570        41.72127        -1.42983
C         31.57661        42.40181        -1.46785
C         32.78386        44.52218        -1.75024
C         31.52478        43.80801        -1.50382
C         32.74148        46.05695        -1.66385
C         31.54372        46.59873        -1.02941
C         32.75884        48.67229        -0.34110
C         31.71255        47.75925        -0.23252
C         32.66929        50.03799         0.10185
C         31.41647        50.73474         0.17958
C         32.62622        52.79849         0.70541
C         31.44604        52.11831         0.49179
C         35.35270        19.10864         1.27330
C         35.34141        20.53050         1.19158
C         34.12340        21.28974         1.31611
C         35.42863        23.36271         1.02307
C         34.16936        22.70500         1.24471
C         35.45905        24.78249         0.84684
C         34.26893        25.53882         1.01045
C         35.36765        27.44704        -0.09246
C         34.22871        26.89601         0.65198
C         35.31250        28.86593        -0.58599
C         33.98584        29.60647        -0.43808
C         35.32687        31.73542        -0.77955
C         34.15889        31.10154        -0.36562
C         35.34779        33.16970        -0.93669
C         34.12915        33.90809        -0.79278
C         35.32226        36.00399        -1.24575
C         34.10006        35.30587        -1.02443
C         35.33812        37.41571        -1.39247
C         34.04465        38.12572        -1.68713
C         35.31112        40.29936        -1.39008
C         34.06979        39.60764        -1.42485
C         35.31159        41.72564        -1.35386
C         34.06891        42.44318        -1.42701
C         35.30127        44.60049        -1.54836
C         34.06963        43.84588        -1.56919
C         35.29960        46.00378        -1.49987
C         34.04730        46.77442        -1.51359
C         35.24088        48.61690        -0.13457
C         34.02775        48.15271        -0.89626
C         35.18235        50.11069         0.10542
C         33.90776        50.77035         0.24149
C         35.12634        52.87561         0.73307
C         33.88537        52.15370         0.56311
C         35.15334        54.26033         1.04298
C         37.79722        19.03920         1.13647
C         36.52808        18.39552         1.25649
C         37.82558        20.45177         1.00215
C         36.59388        21.20395         1.04776
C         37.94304        23.34701         1.04955
C         36.62417        22.61866         0.96130
C         37.91163        24.73679         0.48459
C         36.69341        25.44098         0.49061
C         37.84250        27.46379        -0.32839
C         36.67146        26.79498         0.06266
C         37.80966        28.87157        -0.68341
C         36.59357        29.58752        -0.70386
C         37.76646        31.66869        -1.24232
C         36.58150        30.99948        -0.92422
C         37.69407        33.06978        -1.81869
C         36.52235        33.84936        -1.29290
C         37.78218        35.96332        -1.48347
C         36.54681        35.26443        -1.33898
C         37.79336        37.37417        -1.48590
C         36.55680        38.11224        -1.46155
C         37.79936        40.23149        -1.41954
C         36.56769        39.55990        -1.44258
C         37.84785        41.72305        -1.13363
C         36.54576        42.46611        -1.38860
C         37.81907        44.61653        -1.78964
C         36.54166        43.84773        -1.50779
C         37.80744        46.02193        -1.26499
C         36.57031        46.83535        -1.55810
C         37.69149        48.72427        -0.36470
C         36.53054        48.10781        -0.72518
C         37.66489        50.01379         0.42605
C         36.37152        50.79135         0.29984
C         37.60220        52.91008         0.70400
C         36.36644        52.19411         0.59387
C         37.59516        54.29178         1.00786
C         36.34623        54.93871         1.18824
C         40.23372        16.18689         1.46700
C         39.05075        16.87895         1.37790
C         40.26971        18.97376         1.00876
C         39.02965        18.29070         1.16658
C         40.28286        20.38052         0.75308
C         39.07708        21.12352         0.77888
C         40.30329        23.18268         0.19246
C         39.12549        22.54130         0.58943
C         40.31932        24.61811        -0.08469
C         39.09907        25.36890         0.05482
C         40.28742        27.40702        -0.68473
C         39.07855        26.74832        -0.31973
C         40.25925        28.81199        -0.99274
C         39.03792        29.54544        -0.96582
C         40.19040        31.61801        -1.66602
C         39.01399        30.96174        -1.27482
C         40.21297        33.04816        -2.17774
C         38.99042        33.82927        -1.75670
C         40.28199        35.92755        -1.66401
C         39.01671        35.19846        -1.61774
C         40.26944        37.35886        -1.58412
C         39.04514        38.08676        -1.53100
C         40.29295        40.22418        -1.43038
C         39.03076        39.51263        -1.48724
C         40.31971        41.65327        -1.43758
C         39.05874        42.39095        -1.82779
C         40.22397        44.52185        -1.09547
C         39.08339        43.86314        -1.48517
C         40.21212        45.92019        -0.75132
C         38.98023        46.65088        -0.85380
C         40.15640        48.73977        -0.21910
C         38.96779        48.06071        -0.51304
C         40.14325        50.17453        -0.02872
C         38.89678        50.85892         0.17013
C         40.03608        53.06386         0.16521
C         38.84132        52.23431         0.37629
C         40.06305        54.43548         0.71220
C         38.84795        55.03525         1.12328
C         40.07314        57.05776         1.69806
C         38.87943        56.36406         1.60752
C         42.71151        16.17151         1.52088
C         41.48869        16.86001         1.35846
C         42.75654        18.95589         1.01465
C         41.50537        18.26260         1.11112
C         42.73950        20.36384         0.74048
C         41.53253        21.05652         0.54809
C         42.73684        23.08592        -0.23012
C         41.53361        22.44461         0.14995
C         42.63430        24.39162        -1.01084
C         41.47476        25.25111        -0.54986
C         42.73193        27.35154        -1.08123
C         41.49728        26.66261        -0.79008
C         42.70809        28.77393        -1.30318
C         41.47423        29.45600        -1.36206
C         42.75450        31.63490        -1.92528
C         41.40587        30.84430        -1.82923
C         42.70513        33.08884        -1.74136
C         41.50951        33.77898        -1.85698
C         42.78391        35.93829        -1.99264
C         41.48607        35.21118        -1.75498
C         42.73469        37.39149        -1.61421
C         41.52943        38.06914        -1.52095
C         42.73954        40.21893        -1.16503
C         41.50993        39.51335        -1.37127
C         42.71091        41.62238        -0.93875
C         41.49702        42.33173        -1.15595
C         42.54649        44.35055        -0.14182
C         41.56997        43.83704        -1.19700
C         42.58244        45.85393        -0.09976
C         41.41239        46.58327        -0.30782
C         42.58062        48.73364         0.15448
C         41.40320        48.03020        -0.12471
C         42.60567        50.16681         0.18018
C         41.36949        50.86420         0.04202
C         42.63136        53.02758         0.31828
C         41.39026        52.32434        -0.00301
C         42.57003        54.50010         0.41423
C         41.28505        55.14032         0.79473
C         42.53902        57.13473         1.60472
C         41.29291        56.45680         1.31574
C         43.91815        16.85570         1.44311
C         45.33944        18.90624         1.20151
C         43.97011        18.23356         1.16858
C         45.31712        20.38554         0.80396
C         43.99378        21.12507         0.66239
C         45.21252        23.05577        -0.29770
C         43.97172        22.44045        -0.00930
C         45.23389        24.45103        -0.81224
C         43.95206        25.15830        -1.10415
C         45.20494        27.32043        -1.24249
C         43.95834        26.64441        -1.11534
C         45.21610        28.77228        -1.36797
C         43.94908        29.50907        -1.42227
C         45.26399        31.63390        -1.76689
C         43.96274        30.88501        -1.59585
C         45.22059        33.08249        -1.33596
C         43.90035        33.77291        -1.10528
C         45.19600        35.92414        -1.20456
C         43.98861        35.23993        -1.41912
C         45.23885        37.35309        -1.22775
C         44.03942        38.13243        -1.70959
C         45.17991        40.19736        -0.85374
C         43.98260        39.53180        -1.17121
C         45.15877        41.60308        -0.56818
C         43.92901        42.32104        -0.61022
C         45.10213        44.40053        -0.03678
C         43.90294        43.70128        -0.30176
C         45.09890        45.80839         0.24633
C         43.80719        46.49421         0.38990
C         45.10516        48.71760         0.40832
C         43.81916        48.01742         0.48970
C         45.08328        50.16331         0.41661
C         43.82928        50.87286         0.36866
C         45.06697        53.01234         0.75424
C         43.82506        52.31643         0.46358
C         45.09039        54.41279         0.96279
C         43.86616        55.23027         0.76996
C         43.74308        56.54069         1.43363
C         47.51033        18.75154        -0.02091
C         46.39499        18.14463         0.43899
C         47.65524        20.19444        -0.07061
C         46.49922        20.98876         0.15699
C         47.65467        23.03213        -0.71163
C         46.43183        22.35645        -0.21802
C         47.72306        24.51185        -0.68455
C         46.44865        25.27479        -0.43729
C         47.68538        27.30480        -1.26280
C         46.44331        26.64993        -1.06296
C         47.68129        28.74010        -1.76864
C         46.40900        29.45150        -1.40504
C         47.70102        31.64471        -1.20954
C         46.39491        30.91342        -1.05465
C         47.69051        33.03509        -1.15034
C         46.41270        33.75558        -1.14070
C         47.65703        35.88228        -0.85059
C         46.43043        35.19405        -0.99008
C         47.65890        37.31442        -0.76228
C         46.43008        38.04159        -0.93227
C         47.62009        40.15675        -0.45272
C         46.42050        39.47198        -0.78020
C         47.60063        41.56620        -0.19952
C         46.36591        42.28847        -0.26085
C         47.55777        44.39989         0.23025
C         46.34393        43.69299        -0.02810
C         47.54869        45.82125         0.37297
C         46.29704        46.53023         0.39133
C         47.56906        48.67101         0.46149
C         46.30142        47.98170         0.45578
C         47.60199        50.17816         0.28013
C         46.28854        50.86788         0.56254
C         47.48966        52.91782         1.25272
C         46.28391        52.26663         0.84127
C         47.46659        54.30551         1.48537
C         46.29831        55.03769         1.32410
C         50.13489        20.13447        -0.37949
C         48.91016        20.80005        -0.39597
C         50.22155        22.96621        -0.67100
C         48.92032        22.23344        -0.77205
C         50.20494        24.46205        -0.82525
C         48.90316        25.18350        -0.90192
C         50.18460        27.28163        -1.40745
C         48.90050        26.60752        -1.13910
C         50.19698        28.79924        -1.47361
C         48.92536        29.51293        -1.38057
C         50.16828        31.63248        -1.11098
C         48.92502        30.90210        -1.22494
C         50.15052        33.02181        -0.96313
C         48.92606        33.75514        -0.99205
C         50.14001        35.89805        -0.67261
C         48.91196        35.17067        -0.81695
C         50.12267        37.31225        -0.52860
C         48.87230        38.01880        -0.56007
C         50.06187        40.13300        -0.08738
C         48.85507        39.43602        -0.38597
C         50.01316        41.51059         0.21238
C         48.80053        42.24674         0.14477
C         49.98439        44.40737         0.52807
C         48.78139        43.67990         0.33587
C         50.00255        45.80923         0.49801
C         48.78123        46.53134         0.45288
C         50.06642        48.74537         0.42600
C         48.76226        47.97490         0.48178
C         49.97171        50.08607         1.11062
C         48.77600        50.80220         1.00720
C         49.82787        52.69793         2.11424
C         48.69842        52.14348         1.46241
C         51.36129        20.79644        -0.66577
C         52.70954        22.86970        -1.16744
C         51.44959        22.16221        -0.85403
C         52.69998        24.42350        -1.31610
C         51.45088        25.17261        -1.14916
C         52.69469        27.28470        -1.17416
C         51.47161        26.56718        -1.17854
C         52.70118        28.75993        -0.85265
C         51.44351        29.52095        -1.19064
C         52.67313        31.64712        -1.13685
C         51.42223        30.89389        -1.08820
C         52.66059        33.01176        -1.08591
C         51.42826        33.71553        -0.55824
C         52.59140        35.93504        -0.69683
C         51.40423        35.21830        -0.72004
C         52.60306        37.35259        -0.45305
C         51.34332        38.03555        -0.34350
C         52.54858        40.12071         0.17362
C         51.32385        39.42847        -0.07825
C         52.53624        41.49299         0.53878
C         51.23554        42.16835         0.69396
C         52.50616        44.38078         0.90742
C         51.21987        43.66804         0.84158
C         52.51692        45.76022         0.88294
C         51.33195        46.52658         0.34334
C         52.41942        48.57978         1.31002
C         51.27810        47.94910         0.82569
C         52.35060        49.93256         1.81671
C         51.11833        50.65987         1.73946
C         50.99425        51.97750         2.26158
C         55.15039        23.01525        -0.84578
C         54.00395        22.28888        -0.80031
C         55.18041        24.44439        -1.07636
C         53.96771        25.15601        -1.17429
C         55.17610        27.31002        -1.10642
C         53.94025        26.58786        -1.13737
C         55.18117        28.75755        -1.23641
C         53.95542        29.45154        -1.30857
C         55.21810        31.67034        -1.57247
C         53.90929        30.90607        -1.51411
C         55.20096        33.08633        -1.16014
C         53.90638        33.78939        -1.28709
C         55.13611        35.90127        -0.57496
C         53.88213        35.26131        -0.99741
C         55.14407        37.40613        -0.59991
C         53.81536        38.05023        -0.27038
C         55.01790        40.12302         0.37607
C         53.80541        39.42874         0.08054
C         54.98601        41.49886         0.74628
C         53.72572        42.19333         0.81518
C         54.90563        44.28529         1.40264
C         53.71564        43.61359         1.08766
C         54.91322        45.72078         1.54931
C         53.71599        46.47600         1.23062
C         54.94902        48.64351         1.60828
C         53.67673        47.85759         1.40204
C         54.70452        49.83475         2.49789
C         53.49535        50.45526         2.51215
C         57.68030        24.49114        -1.02979
C         56.42248        25.16468        -1.05178
C         57.64262        27.31311        -1.04016
C         56.40587        26.59532        -1.07601
C         57.64230        28.74469        -1.06557
C         56.42809        29.45120        -1.24649
C         57.65181        31.61984        -0.85609
C         56.54239        30.92042        -1.61010
C         57.58089        32.99593        -0.53933
C         56.33418        33.73993        -0.71750
C         57.50720        35.83275         0.05673
C         56.30053        35.17257        -0.42474
C         57.48041        37.24025         0.35229
C         56.30571        38.01185         0.13715
C         57.45663        40.03192         0.89309
C         56.27070        39.38146         0.45059
C         57.51306        41.53729         0.89028
C         56.17803        42.19654         1.08625
C         57.32160        44.19002         1.97755
C         56.14604        43.54665         1.49145
C         57.19326        45.56582         2.58215
C         56.06266        46.38005         2.00216
C         57.32258        48.43264         2.38779
C         56.12891        47.80392         2.05610
C         58.86675        25.18391        -1.00040
C         60.09183        27.33892        -0.93789
C         58.87752        26.61067        -0.98906
C         60.08358        28.72462        -0.86380
C         58.87663        29.45197        -0.89599
C         59.95733        31.55572        -0.08965
C         58.84149        30.88861        -0.64043
C         59.89842        32.90619         0.20675
C         58.72055        33.65535        -0.00519
C         59.80945        35.73956         0.84807
C         58.67396        35.08282         0.29854
C         59.79463        37.08524         1.13671
C         58.64205        37.87509         0.89095
C         59.79936        39.98403         1.60594
C         58.63490        39.29556         1.11995
C         59.77437        41.32651         1.92931
C         58.62428        42.12474         1.72535
C         59.70063        44.18633         2.64875
C         58.54384        43.48563         2.12252
C         59.69390        45.53849         2.84472
C         58.50172        46.31194         2.65071
C         58.50838        47.69148         2.64427
O         43.34926        55.21311        -0.60283
O         50.32308        23.81562         0.53539
O         32.63396        45.39145        -2.93985
O         30.73791        48.01532         0.74517
O         48.16398        22.49016        -2.00275
O         27.10208        31.00596         3.26125
O         50.25958        27.95444        -2.72677
O         44.80341        24.60756        -2.19700
O         30.75752        33.20791        -1.55395
O         35.14516        27.76030        -1.54267
O         43.66645        47.17393         1.69614
O         52.67728        23.51182        -2.48024
O         40.66128        52.91156        -1.13920
O         44.78877        21.17800         1.92006
O         53.88307        34.76350        -2.40295
O         34.12849        48.02183        -2.32725
O         54.45513        31.40779        -2.80240
O         42.07548        31.11553        -3.12557
O         51.04929        42.79226         2.02147
O         30.70285        25.81550         4.49451
O         46.07094        30.98575         0.37401
H         46.77172        30.51188         0.86874
O         43.64167        33.65930         0.35584
H         44.48845        33.84321         0.81678
O         51.55438        46.58426        -1.11605
H         50.97655        47.30866        -1.46029
O         52.73479        28.81211         0.64720
H         53.51492        28.28719         0.93111
O         32.73958        27.33078         3.41820
H         32.15188        26.77245         4.01475
O         29.88085        28.09007         4.26041
H         30.32071        27.41101         4.85457
O         50.26568        49.04949        -1.03429
H         51.04716        49.64134        -1.09700
O         45.55459        31.61735        -3.18959
H         44.74864        31.88721        -3.67770
O         55.32621        49.18085         0.28809
H         54.57694        49.73097        -0.02408
O         57.89686        41.88677        -0.50963
H         58.73913        41.41924        -0.69846
O         42.27780        23.99648        -2.36986
H         43.12806        23.89289        -2.85938
O         36.70253        47.27236        -2.95601
H         36.68646        46.45512        -3.50618
O         37.80959        44.75362        -3.29716
H         38.60820        45.27609        -3.53358
O         33.88794        38.01278        -3.15563
H         33.84422        37.05690        -3.37334
O         42.98934        35.90561        -3.48707
H         42.11243        36.05497        -3.90397
O         40.13540        32.94218        -3.65024
H         40.83463        32.28672        -3.90624
O         26.85392        38.56056         1.54861
H         26.87437        37.70247         2.02418
O         42.02403        43.92023         1.15051
H         42.54169        44.36900         1.85214
O         37.40503        32.87344        -3.25162
H         38.27836        32.76764        -3.70714
O         33.21137        29.39557        -1.65860
H         33.57545        28.57795        -2.07823
O         28.30012        25.52669         5.08179
H         29.23556        25.62030         5.42566
O         38.91484        42.24574        -3.26245
H         38.30126        42.95683        -3.57337
O         38.10834        41.85338         0.29517
H         37.38315        41.40677         0.77988
O         25.51492        45.76708        -3.48908
H         24.71232        45.29984        -3.80631
O         56.81735        45.32281         4.00039
H         56.77582        46.20026         4.43751
O         47.82744        50.40007        -1.15332
H         48.67110        49.93407        -1.38360
O         35.15207        47.97925         1.18248
H         35.92241        48.30376         1.70572
O         32.61435        30.40705         2.52706
H         32.65956        29.61609         3.11432
O         30.27032        41.49211        -3.20704
H         30.32874        42.39394        -3.58984
O         47.68973        28.66901        -3.23119
H         48.57244        28.30040        -3.48505
O         44.28838        38.28900        -3.16364
H         44.04570        37.41854        -3.57593
O         37.71099        49.59527         1.84205
H         37.73646        50.40966         2.38864
O         51.50718        33.54400         0.91236
H         51.38938        32.58825         1.10318
O         24.42230        31.57383         3.51576
H         25.32996        31.37310         3.85733
O         46.33883        25.46626         1.01758
H         47.18615        25.84294         1.33643
O         42.11987        44.21251        -2.49091
H         41.61445        43.73669        -3.18346
O         45.76421        18.85909         2.59715
H         45.36544        19.64958         3.02992
O         55.37805        37.72889        -2.02567
H         54.81672        37.12509        -2.56037
O         38.16941        23.53326         2.50476
H         38.15267        22.64295         2.91715
O         56.98506        30.91928        -3.00570
H         56.16398        30.88700        -3.55171
H         22.62335        26.93994         1.89590
H         22.43633        29.38595         1.72305
H         22.25481        31.34141         1.64717
H         22.18791        33.52128         0.62007
H         22.11173        35.45280         0.23772
H         22.06539        37.82455        -0.28536
H         22.03568        39.75235        -0.36026
H         21.97418        42.12934        -0.85621
H         21.94209        44.00686        -1.40266
H         21.94203        46.44217        -1.68120
H         26.15991        23.90874         3.03918
H         24.01422        24.89545         2.35064
H         25.30441        49.84244        -1.83118
H         23.17851        48.60308        -1.88334
H         27.76926        23.14557         4.10844
H         27.04039        50.83022        -1.53381
H         29.46978        21.91896         2.94844
H         29.10252        51.95996        -0.87616
H         32.76979        19.58008         1.55627
H         30.78725        20.88893         2.01349
H         32.57795        53.86306         0.96862
H         30.49542        52.66248         0.58239
H         34.40627        18.55956         1.36648
H         34.21599        54.81797         1.16647
H         36.47653        17.30162         1.33441
H         36.31280        56.01228         1.41502
H         40.22690        15.10167         1.64372
H         38.10765        16.32725         1.48618
H         40.08406        58.08166         2.09832
H         37.95533        56.85611         1.93742
H         42.70110        15.09255         1.73120
H         42.48010        58.12587         2.07859
H         44.85375        16.30546         1.61288
H         44.64865        57.04527         1.79851
H         48.31106        18.14109        -0.46389
H         46.31948        17.04884         0.39149
H         48.38507        54.83689         1.76656
H         46.33430        56.12559         1.46752
H         50.17129        19.06040        -0.15022
H         49.78546        53.71867         2.51696
H         52.26938        20.17970        -0.73107
H         51.84399        52.45103         2.76990
H         56.08944        22.50984        -0.58257
H         54.03674        21.24604        -0.45348
H         55.54521        50.26872         3.05845
H         53.38568        51.37726         3.10058
H         57.71221        23.39394        -1.05057
H         57.38484        49.52938         2.37528
H         59.82369        24.64270        -0.98676
H         61.04582        26.79256        -0.92324
H         61.04217        29.25546        -0.78618
H         60.88798        31.00845         0.11072
H         60.79614        33.38321         0.61925
H         60.72751        35.17640         1.05675
H         60.69870        37.54046         1.56121
H         60.72512        39.42382         1.78907
H         60.67082        41.76360         2.39045
H         60.63865        43.63533         2.79760
H         60.62327        46.06023         3.11923
H         59.45477        48.23268         2.79230
